#******************************************
#
# CIF file created by Zeo++
# Zeo++ is an open source package to
# analyze microporous materials
#
#*******************************************

_cell_length_a		27.0248(0)
_cell_length_b		15.171(0)
_cell_length_c		9.90544(0)
_cell_angle_alpha		90(0)
_cell_angle_beta		102.611(0)
_cell_angle_gamma		90(0)

_symmetry_space_group_name_H-M		'P1'
_symmetry_Int_Tables_number		1
_symmetry_cell_setting		Monoclinic

loop_
_symmetry_equiv_pos_as_xyz
'+x,+y,+z'

loop_
_atom_site_label
_atom_site_type_symbol
_atom_site_fract_x
_atom_site_fract_y
_atom_site_fract_z
0	C	0.14063	0.776406	0.389064
0	C	0.883018	0.775073	0.164545
0	C	0.885584	0.235372	0.668746
0	C	0.142904	0.236631	0.89619
0	C	0.645841	0.277034	0.38994
0	C	0.377758	0.275698	0.163554
0	C	0.380232	0.734705	0.669369
0	C	0.648308	0.736011	0.895704
0	C	0.143543	0.868524	0.42695
0	C	0.880128	0.867552	0.128654
0	C	0.882698	0.143182	0.631378
0	C	0.145867	0.1441	0.93172
0	C	0.648311	0.369276	0.426886
0	C	0.37529	0.368275	0.128481
0	C	0.377801	0.642456	0.632521
0	C	0.650839	0.643442	0.930849
0	C	0.101934	0.910374	0.456806
0	C	0.921391	0.909188	0.0963113
0	C	0.92431	0.101246	0.601709
0	C	0.104654	0.102318	0.964082
0	C	0.606398	0.410908	0.455338
0	C	0.416844	0.409661	0.0973805
0	C	0.419726	0.600838	0.604137
0	C	0.609335	0.602009	0.962156
0	C	0.199419	0.0045658	0.50619
0	C	0.824718	0.00504949	0.0555619
0	C	0.826817	0.00707273	0.552875
0	C	0.20134	0.00652649	0.00370871
0	C	0.703675	0.505875	0.506093
0	C	0.320411	0.506394	0.055687
0	C	0.322458	0.505866	0.553228
0	C	0.705781	0.505336	0.00336759
0	H	0.232944	0.997637	0.596419
0	H	0.790678	0.998928	0.966721
0	H	0.793321	0.0140297	0.462586
0	H	0.235438	0.0125774	0.0924063
0	H	0.736916	0.498874	0.597086
0	H	0.286586	0.500468	0.966176
0	H	0.28926	0.512965	0.462149
0	H	0.739654	0.511312	0.092737
0	C	0.102065	0.00749844	0.490606
0	C	0.921655	0.00662348	0.0651972
0	C	0.924177	0.00404714	0.56845
0	C	0.104447	0.00481533	0.994713
0	C	0.606159	0.508238	0.487614
0	C	0.4175	0.507287	0.0678667
0	C	0.419985	0.503501	0.571933
0	C	0.608728	0.504382	0.9917
0	H	0.0760308	0.0186226	0.563189
0	H	0.947038	0.0182329	0.990997
0	H	0.950209	0.992709	0.49593
0	H	0.0791299	0.992971	0.0690134
0	H	0.579707	0.519856	0.558867
0	H	0.443284	0.519394	0.994918
0	H	0.446459	0.491865	0.50075
0	H	0.583007	0.492261	0.0648108
0	C	0.192299	0.916456	0.429825
0	C	0.831925	0.916235	0.130154
0	C	0.834	0.0952177	0.62913
0	C	0.19403	0.0954724	0.929517
0	C	0.696853	0.417805	0.429488
0	C	0.327257	0.417453	0.130044
0	C	0.32929	0.593866	0.630043
0	C	0.69885	0.594268	0.928985
0	H	0.196243	0.926747	0.320587
0	H	0.828877	0.925608	0.240225
0	H	0.830241	0.0849835	0.738524
0	H	0.196913	0.0863215	0.819271
0	H	0.700467	0.428419	0.319996
0	H	0.324324	0.426859	0.240211
0	H	0.325756	0.583123	0.739564
0	H	0.701663	0.584833	0.81872
0	H	0.224817	0.873148	0.477362
0	H	0.798922	0.873725	0.0835121
0	H	0.801404	0.138439	0.581903
0	H	0.227075	0.137937	0.976053
0	H	0.729642	0.374881	0.476368
0	H	0.294062	0.375343	0.0833947
0	H	0.296456	0.636758	0.583441
0	H	0.732071	0.636404	0.975391
0	C	0.211837	0.0789143	0.414166
0	C	0.813296	0.0791944	0.149459
0	C	0.814297	0.932859	0.644989
0	C	0.212696	0.932559	0.909409
0	C	0.716571	0.579949	0.414306
0	C	0.308657	0.580183	0.14972
0	C	0.309454	0.431758	0.644801
0	C	0.71748	0.431541	0.909256
0	C	0.160162	0.142645	0.558819
0	C	0.864338	0.143092	0.00318394
0	C	0.866079	0.868839	0.500873
0	C	0.16181	0.868327	0.0558177
0	C	0.663609	0.644112	0.555398
0	C	0.360878	0.644543	0.00669001
0	C	0.362555	0.367615	0.504078
0	C	0.665399	0.367162	0.0526627
0	H	0.182652	0.16736	0.660878
0	H	0.841528	0.169212	0.902511
0	H	0.843617	0.843958	0.398901
0	H	0.184683	0.842048	0.156295
0	H	0.685317	0.669761	0.6577
0	H	0.33879	0.671625	0.905831
0	H	0.340899	0.341957	0.401724
0	H	0.687547	0.340099	0.153464
0	C	0.18241	0.729488	0.355866
0	C	0.841884	0.728106	0.201234
0	C	0.843789	0.282268	0.701924
0	C	0.183941	0.283707	0.859145
0	C	0.688002	0.230534	0.358119
0	C	0.336261	0.229189	0.199116
0	C	0.338018	0.781161	0.700966
0	C	0.689751	0.7826	0.859972
0	H	0.218285	0.763843	0.360821
0	H	0.806223	0.762407	0.199528
0	H	0.807914	0.247904	0.696921
0	H	0.219612	0.24948	0.860707
0	H	0.723804	0.265317	0.36377
0	H	0.300674	0.263921	0.196786
0	H	0.302208	0.746358	0.695081
0	H	0.725365	0.747936	0.862378
0	C	0.198015	0.243383	0.397657
0	C	0.82774	0.243614	0.16698
0	C	0.828122	0.768406	0.662192
0	C	0.198323	0.768102	0.891538
0	C	0.702827	0.74435	0.396791
0	C	0.322962	0.744548	0.168112
0	C	0.323218	0.267365	0.662426
0	C	0.703214	0.267151	0.891056
0	C	0.155009	0.0400257	0.565408
0	C	0.868605	0.0404692	0.994095
0	C	0.871226	0.971442	0.493826
0	C	0.157536	0.970915	0.0653487
0	C	0.658833	0.541492	0.563426
0	C	0.364715	0.541942	0.995979
0	C	0.367326	0.470234	0.496032
0	C	0.661547	0.469757	0.0633526
0	H	0.161215	0.0193226	0.676502
0	H	0.861315	0.0208583	0.882243
0	H	0.86502	0.991921	0.382619
0	H	0.164924	0.990352	0.177294
0	H	0.664736	0.521504	0.674808
0	H	0.357664	0.523126	0.883782
0	H	0.361463	0.490199	0.384649
0	H	0.668675	0.488608	0.175554
0	C	0.198997	0.318369	0.481949
0	C	0.827391	0.318759	0.0832717
0	C	0.827152	0.693336	0.578089
0	C	0.198857	0.692905	0.975243
0	C	0.703587	0.819292	0.481058
0	C	0.322787	0.819629	0.0843742
0	C	0.32264	0.192426	0.578258
0	C	0.703421	0.192092	0.974864
0	H	0.195594	0.312087	0.589103
0	H	0.831422	0.312741	0.976581
0	H	0.830592	0.699514	0.470953
0	H	0.195014	0.698868	0.0820996
0	H	0.699673	0.81302	0.587806
0	H	0.327325	0.81363	0.97811
0	H	0.326715	0.198706	0.471644
0	H	0.698976	0.198137	0.0812038
0	C	0.203892	0.25239	0.260604
0	C	0.821436	0.252585	0.303678
0	C	0.822183	0.759549	0.799209
0	C	0.204381	0.759216	0.754609
0	C	0.70938	0.753157	0.260343
0	C	0.315954	0.753335	0.30416
0	C	0.316426	0.258541	0.798649
0	C	0.710115	0.258301	0.754917
0	H	0.202932	0.194227	0.19501
0	H	0.822085	0.194396	0.369009
0	H	0.823121	0.817775	0.864655
0	H	0.203598	0.817434	0.689272
0	H	0.708636	0.694913	0.195012
0	H	0.316419	0.695082	0.369274
0	H	0.317023	0.316783	0.863908
0	H	0.70963	0.316522	0.689725
0	C	0.205467	0.401558	0.428289
0	C	0.820852	0.401883	0.13702
0	C	0.820643	0.610201	0.631871
0	C	0.205306	0.609816	0.921276
0	C	0.710466	0.902402	0.427749
0	C	0.315769	0.902672	0.13769
0	C	0.315723	0.109295	0.631437
0	C	0.710334	0.109014	0.921536
0	H	0.205619	0.459567	0.493576
0	H	0.821141	0.459973	0.0722161
0	H	0.820498	0.552135	0.566723
0	H	0.205148	0.551681	0.986069
0	H	0.710506	0.960432	0.492921
0	H	0.316114	0.960774	0.0729417
0	H	0.315827	0.0512705	0.566346
0	H	0.709994	0.0509254	0.986316
0	C	0.0811719	0.0604621	0.357581
0	C	0.944037	0.0579445	0.198924
0	C	0.945045	0.951333	0.701751
0	C	0.0819953	0.953765	0.860783
0	C	0.585825	0.560164	0.353078
0	C	0.439398	0.55751	0.203129
0	C	0.440283	0.4516	0.70651
0	C	0.586744	0.454165	0.856504
0	H	0.0439523	0.0327953	0.303509
0	H	0.981422	0.029302	0.249588
0	H	0.982251	0.979078	0.755785
0	H	0.0445835	0.982435	0.810424
0	H	0.549249	0.531608	0.297619
0	H	0.476105	0.527806	0.255207
0	H	0.476848	0.480158	0.762046
0	H	0.549988	0.483812	0.804693
0	H	0.106918	0.052435	0.28538
0	H	0.919197	0.0494215	0.273367
0	H	0.919258	0.95954	0.773816
0	H	0.106762	0.96248	0.786212
0	H	0.612429	0.552326	0.283126
0	H	0.413666	0.549402	0.27538
0	H	0.413638	0.459449	0.776353
0	H	0.612374	0.462362	0.783997
0	C	0.0947395	0.729881	0.384091
0	C	0.928384	0.728097	0.164225
0	C	0.931484	0.28188	0.673771
0	C	0.0974985	0.283451	0.89662
0	C	0.599985	0.230157	0.383814
0	C	0.423089	0.228359	0.164265
0	C	0.426093	0.781612	0.67566
0	C	0.602941	0.783246	0.894989
0	C	0.0561191	0.862251	0.453347
0	C	0.96655	0.860531	0.0938383
0	C	0.970117	0.149367	0.604999
0	C	0.0594669	0.150828	0.966808
0	C	0.560634	0.362422	0.450848
0	C	0.461932	0.360607	0.0956286
0	C	0.465479	0.649367	0.608653
0	C	0.564226	0.650981	0.964002
0	H	0.0239661	0.896676	0.479027
0	H	0.998331	0.894815	0.0658751
0	H	0.00227314	0.114873	0.579462
0	H	0.0277279	0.116406	0.994754
0	H	0.528218	0.396656	0.475263
0	H	0.493936	0.394666	0.0686029
0	H	0.497906	0.615152	0.584251
0	H	0.532267	0.616882	0.991189
0	C	0.178281	0.642093	0.319264
0	C	0.846357	0.640635	0.237467
0	C	0.847923	0.369643	0.73864
0	C	0.179342	0.371122	0.822652
0	C	0.68429	0.143091	0.321807
0	C	0.340341	0.141699	0.235274
0	C	0.341702	0.868592	0.737365
0	C	0.68558	0.870042	0.823562
0	H	0.210629	0.606841	0.294331
0	H	0.814572	0.605428	0.265683
0	H	0.815581	0.404847	0.763683
0	H	0.211031	0.406379	0.794022
0	H	0.716882	0.108174	0.297636
0	H	0.308313	0.10686	0.262854
0	H	0.309071	0.90348	0.761366
0	H	0.717562	0.904943	0.795848
0	C	0.075059	0.158699	0.387496
0	C	0.950318	0.156465	0.17127
0	C	0.951165	0.853032	0.672328
0	C	0.0757509	0.855173	0.888029
0	C	0.578891	0.658443	0.38092
0	C	0.446652	0.655992	0.177361
0	C	0.447224	0.353301	0.678762
0	C	0.579578	0.355654	0.882259
0	H	0.0841955	0.19809	0.301696
0	H	0.941757	0.195101	0.258581
0	H	0.942036	0.813814	0.758303
0	H	0.0842296	0.81673	0.800439
0	H	0.587933	0.697473	0.294654
0	H	0.438422	0.694392	0.265293
0	H	0.438135	0.314297	0.764982
0	H	0.587799	0.317308	0.794279
0	H	0.0349943	0.173601	0.388233
0	H	0.990304	0.171229	0.169375
0	H	0.991233	0.838088	0.671655
0	H	0.0357884	0.840371	0.890115
0	H	0.538654	0.672541	0.380537
0	H	0.486789	0.669705	0.176007
0	H	0.48747	0.339178	0.679293
0	H	0.539458	0.341853	0.883689
0	C	0.0525115	0.774905	0.418138
0	C	0.969989	0.772776	0.126227
0	C	0.973725	0.236751	0.639981
0	C	0.0559368	0.238598	0.934552
0	C	0.557369	0.275008	0.415959
0	C	0.465046	0.272792	0.127732
0	C	0.468724	0.736775	0.643583
0	C	0.561036	0.738763	0.931707
0	H	0.0175374	0.738315	0.414805
0	H	0.00432992	0.735569	0.12435
0	H	0.00871887	0.273303	0.643389
0	H	0.0215489	0.275667	0.936421
0	H	0.522376	0.238296	0.411519
0	H	0.499379	0.235406	0.126611
0	H	0.503721	0.773509	0.648093
0	H	0.526676	0.776074	0.932821
0	C	0.212041	0.410833	0.292892
0	C	0.813707	0.41106	0.271899
0	C	0.814021	0.601068	0.767241
0	C	0.212176	0.600726	0.786121
0	C	0.717574	0.911556	0.292827
0	C	0.308067	0.911742	0.272051
0	C	0.308377	0.100123	0.766122
0	C	0.717915	0.0998871	0.787064
0	H	0.218471	0.475952	0.252529
0	H	0.807152	0.47614	0.312193
0	H	0.807567	0.535992	0.807694
0	H	0.218644	0.535666	0.745638
0	H	0.72418	0.976643	0.252593
0	H	0.301278	0.976784	0.312134
0	H	0.301733	0.0350225	0.806243
0	H	0.72462	0.034814	0.746953
0	C	0.108666	0.189135	0.524796
0	C	0.916241	0.188308	0.035615
0	C	0.917572	0.822347	0.535183
0	C	0.109919	0.82309	0.0233993
0	C	0.611988	0.690177	0.518164
0	C	0.412938	0.689264	0.0420623
0	C	0.414179	0.321559	0.541467
0	C	0.613347	0.322418	0.0175028
0	H	0.08947	0.177085	0.611468
0	H	0.93471	0.176261	0.947446
0	H	0.936768	0.834187	0.448438
0	H	0.0915037	0.834899	0.11174
0	H	0.592334	0.678852	0.60411
0	H	0.431742	0.67803	0.954326
0	H	0.433863	0.332887	0.455579
0	H	0.594578	0.333677	0.105298
0	H	0.113708	0.261647	0.522754
0	H	0.911822	0.260905	0.0390052
0	H	0.912526	0.749842	0.537583
0	H	0.114347	0.750512	0.0196114
0	H	0.61694	0.762662	0.51456
0	H	0.408641	0.761817	0.0472383
0	H	0.409235	0.249072	0.545079
0	H	0.617644	0.249868	0.0123659
0	C	0.210931	0.336146	0.209703
0	C	0.81442	0.33631	0.354718
0	C	0.815116	0.675841	0.850257
0	C	0.211304	0.675519	0.703313
0	C	0.716751	0.83686	0.209801
0	C	0.308531	0.836998	0.354748
0	C	0.30901	0.174821	0.849058
0	C	0.717443	0.1746	0.7043
0	H	0.214979	0.343415	0.103015
0	H	0.810079	0.343544	0.461155
0	H	0.811023	0.668679	0.956922
0	H	0.215432	0.66835	0.59668
0	H	0.721294	0.844069	0.103533
0	H	0.303663	0.844176	0.460725
0	H	0.304273	0.167594	0.955151
0	H	0.722214	0.167374	0.598243
0	C	0.0912611	0.638825	0.345276
0	C	0.932199	0.636942	0.202326
0	C	0.934948	0.372945	0.712564
0	C	0.0935733	0.374587	0.858421
0	C	0.596982	0.139013	0.345522
0	C	0.426472	0.137165	0.202184
0	C	0.429067	0.87274	0.714067
0	C	0.599463	0.87439	0.856797
0	H	0.055743	0.604164	0.342329
0	H	0.967354	0.602129	0.201152
0	H	0.970462	0.407627	0.715516
0	H	0.0583977	0.409285	0.859767
0	H	0.561529	0.103986	0.341661
0	H	0.461577	0.101985	0.201954
0	H	0.464524	0.907797	0.718127
0	H	0.564326	0.909476	0.856981
0	C	0.131976	0.59602	0.313412
0	C	0.892294	0.594358	0.238976
0	C	0.894229	0.415721	0.744481
0	C	0.133376	0.417262	0.821379
0	C	0.638057	0.0966062	0.315057
0	C	0.386227	0.0950339	0.237754
0	C	0.387949	0.91509	0.744399
0	C	0.639648	0.916585	0.821006
0	H	0.129695	0.526598	0.283998
0	H	0.895034	0.525043	0.269094
0	H	0.896512	0.485131	0.773982
0	H	0.130543	0.486546	0.791099
0	H	0.636106	0.0271538	0.28595
0	H	0.388674	0.0257415	0.267904
0	H	0.389883	0.984524	0.77363
0	H	0.637128	0.985834	0.790634
0	N	0.191391	0.157632	0.452115
0	N	0.83409	0.157835	0.112248
0	N	0.834798	0.854072	0.607512
0	N	0.191977	0.853818	0.946513
0	N	0.695704	0.658685	0.450701
0	N	0.329857	0.658845	0.114022
0	N	0.33039	0.353035	0.608608
0	N	0.696345	0.352866	0.94515
0	O	0.236331	0.0719879	0.324543
0	O	0.789067	0.0723347	0.239681
0	O	0.789655	0.93991	0.734258
0	O	0.236788	0.939584	0.818912
0	O	0.741592	0.572778	0.325945
0	O	0.283985	0.573029	0.238875
0	O	0.284268	0.4389	0.732791
0	O	0.742029	0.438702	0.81982
