#******************************************
#
# CIF file created by Zeo++
# Zeo++ is an open source package to
# analyze microporous materials
#
#*******************************************

_cell_length_a		15.7764(0)
_cell_length_b		8.91435(0)
_cell_length_c		16.643(0)
_cell_angle_alpha		90(0)
_cell_angle_beta		108.817(0)
_cell_angle_gamma		90(0)

_symmetry_space_group_name_H-M		'P1'
_symmetry_Int_Tables_number		1
_symmetry_cell_setting		Monoclinic

loop_
_symmetry_equiv_pos_as_xyz
'+x,+y,+z'

loop_
_atom_site_label
_atom_site_type_symbol
_atom_site_fract_x
_atom_site_fract_y
_atom_site_fract_z
0	S	0.473402	0.248215	0.503573
0	S	0.0379618	0.751236	0.000609776
0	S	0.535477	0.755722	0.502211
0	S	0.971257	0.252682	0.00581843
0	O	0.900061	0.141791	0.51407
0	O	0.612678	0.640089	0.992737
0	O	0.108836	0.862615	0.491585
0	O	0.396229	0.36393	0.0129457
0	N	0.62736	0.393625	0.52954
0	N	0.882816	0.894811	0.973163
0	N	0.381452	0.6105	0.476204
0	N	0.126523	0.109237	0.0335512
0	H	0.593836	0.489198	0.538391
0	H	0.915805	0.991165	0.964469
0	H	0.414955	0.514886	0.467423
0	H	0.0936177	0.012918	0.0424275
0	N	0.626931	0.133696	0.495889
0	N	0.885212	0.635195	0.00835749
0	N	0.381935	0.870496	0.509717
0	N	0.123891	0.368665	0.997853
0	H	0.593824	0.0316553	0.486553
0	H	0.918747	0.533543	0.0176565
0	H	0.415064	0.972552	0.519017
0	H	0.0902737	0.470282	0.988511
0	C	0.849555	0.0177999	0.480732
0	C	0.663998	0.516616	0.0254716
0	C	0.159372	0.986622	0.524919
0	C	0.34485	0.487373	0.980232
0	C	0.897161	0.895447	0.463253
0	C	0.617188	0.392288	0.0419557
0	C	0.111797	0.109066	0.542308
0	C	0.391576	0.611719	0.963603
0	H	0.96948	0.904189	0.475558
0	H	0.544648	0.398668	0.0285405
0	H	0.0394626	0.100412	0.530042
0	H	0.464089	0.605445	0.976891
0	C	0.849897	0.766468	0.429192
0	C	0.665763	0.2647	0.0765889
0	C	0.159091	0.238035	0.57633
0	C	0.342896	0.73912	0.92887
0	H	0.885088	0.670695	0.413684
0	H	0.631337	0.166887	0.09088
0	H	0.123876	0.333856	0.591769
0	H	0.377238	0.836854	0.914395
0	C	0.756778	0.758531	0.41279
0	C	0.759283	0.260467	0.0953557
0	C	0.252164	0.245821	0.592818
0	C	0.249377	0.743311	0.910271
0	H	0.720494	0.658128	0.383366
0	H	0.796526	0.161533	0.125883
0	H	0.288545	0.346207	0.622252
0	H	0.212101	0.84219	0.879724
0	C	0.710649	0.879284	0.431545
0	C	0.80461	0.382856	0.077224
0	C	0.298315	0.125003	0.574149
0	C	0.204165	0.620978	0.928586
0	H	0.638087	0.871827	0.417277
0	H	0.877504	0.378809	0.093507
0	H	0.37086	0.13249	0.588511
0	H	0.131282	0.624993	0.912445
0	C	0.756404	0.0112122	0.467202
0	C	0.757327	0.512349	0.0396343
0	C	0.252545	0.993117	0.538484
0	C	0.251534	0.491571	0.966202
0	C	0.715761	0.143164	0.492182
0	C	0.796691	0.643769	0.0128201
0	C	0.293126	0.861091	0.513497
0	C	0.212315	0.360145	0.993136
0	C	0.583529	0.26091	0.511136
0	C	0.927568	0.763122	0.992484
0	C	0.425325	0.743203	0.49458
0	C	0.0816709	0.240774	0.0140077
0	C	0.779273	0.330295	0.697
0	C	0.730946	0.831215	0.806151
0	C	0.229507	0.674572	0.308801
0	C	0.279753	0.172978	0.199874
0	H	0.740708	0.226911	0.679317
0	H	0.769778	0.72802	0.823559
0	H	0.268062	0.777942	0.326656
0	H	0.241268	0.276551	0.182637
0	C	0.832659	0.353048	0.781229
0	C	0.678161	0.855143	0.72185
0	C	0.176146	0.652156	0.224575
0	C	0.333047	0.148902	0.283989
0	H	0.8353	0.2678	0.82908
0	H	0.676346	0.771081	0.673612
0	H	0.173464	0.737618	0.176816
0	H	0.335458	0.233058	0.332352
0	C	0.883391	0.484188	0.804094
0	C	0.626929	0.985839	0.699433
0	C	0.125452	0.521019	0.201507
0	C	0.383925	0.0178069	0.306128
0	H	0.927201	0.499363	0.869233
0	H	0.583924	0.00216895	0.634078
0	H	0.0816361	0.506139	0.136339
0	H	0.427333	0.00136717	0.371334
0	C	0.878324	0.595052	0.74329
0	C	0.630231	0.0947969	0.760853
0	C	0.130551	0.40978	0.262119
0	C	0.379737	0.908551	0.244656
0	H	0.916394	0.698706	0.76157
0	H	0.591367	0.197793	0.743
0	H	0.0925289	0.306116	0.243694
0	H	0.418293	0.80522	0.262354
0	C	0.824751	0.573165	0.659044
0	C	0.683337	0.071857	0.84512
0	C	0.184125	0.431349	0.346416
0	C	0.326098	0.931583	0.160561
0	H	0.821189	0.6602	0.612024
0	H	0.685765	0.157357	0.892655
0	H	0.187698	0.344052	0.393265
0	H	0.323003	0.84587	0.112974
0	C	0.776453	0.439337	0.635532
0	C	0.732863	0.938998	0.867974
0	C	0.232368	0.565161	0.370113
0	C	0.276896	0.0648024	0.137972
0	C	0.725296	0.411168	0.542301
0	C	0.784896	0.911095	0.960979
0	C	0.283499	0.593077	0.463372
0	C	0.22431	0.0928215	0.0451271
0	H	0.731815	0.511349	0.502983
0	H	0.778217	0.0113491	0.000300114
0	H	0.27687	0.492795	0.502586
0	H	0.230623	0.992623	0.00561585
0	C	0.761929	0.274045	0.511864
0	C	0.749598	0.773547	0.992165
0	C	0.246933	0.730214	0.493871
0	C	0.25943	0.230379	0.0137247
0	C	0.854246	0.287729	0.505287
0	C	0.658104	0.786326	0.000649708
0	C	0.154584	0.716622	0.500382
0	C	0.35086	0.217647	0.0051059
0	H	0.90073	0.347074	0.561835
0	H	0.61042	0.845698	0.944909
0	H	0.108132	0.65738	0.443792
0	H	0.398635	0.15829	0.0608023
0	C	0.857259	0.356367	0.422973
0	C	0.658313	0.854795	0.0840299
0	C	0.151464	0.647886	0.582641
0	C	0.350519	0.14918	0.921691
0	C	0.941266	0.389192	0.415111
0	C	0.5758	0.887342	0.0952068
0	C	0.0674184	0.615073	0.590429
0	C	0.433002	0.11661	0.910433
0	H	0.00226248	0.361054	0.466502
0	H	0.513535	0.859174	0.0454344
0	H	0.00645055	0.643338	0.53902
0	H	0.495289	0.14472	0.960189
0	C	0.946941	0.455703	0.341049
0	C	0.573446	0.953511	0.170518
0	C	0.0616656	0.548405	0.664409
0	C	0.435273	0.0505482	0.835061
0	H	0.0122139	0.480524	0.334724
0	H	0.509318	0.977936	0.179462
0	H	0.996377	0.523544	0.67067
0	H	0.499377	0.0261922	0.826055
0	C	0.868873	0.490061	0.274551
0	C	0.653322	0.988002	0.234816
0	C	0.139704	0.513932	0.730941
0	C	0.355388	0.0161139	0.770824
0	H	0.873261	0.54413	0.217282
0	H	0.651487	0.041892	0.293016
0	H	0.135233	0.459746	0.788143
0	H	0.357147	0.962321	0.712563
0	C	0.785185	0.454726	0.281466
0	C	0.735584	0.953057	0.224563
0	C	0.223422	0.54927	0.724105
0	C	0.273149	0.0509726	0.781163
0	H	0.724393	0.479149	0.22891
0	H	0.797864	0.977501	0.275334
0	H	0.284197	0.524764	0.776673
0	H	0.210849	0.0265147	0.730438
0	C	0.779299	0.387358	0.355351
0	C	0.738122	0.88592	0.149478
0	C	0.229384	0.616718	0.650272
0	C	0.270666	0.118038	0.856293
0	H	0.713694	0.358916	0.359706
0	H	0.802722	0.857753	0.142623
0	H	0.295016	0.645135	0.645963
0	H	0.206095	0.146136	0.863226
