#******************************************
#
# CIF file created by Zeo++
# Zeo++ is an open source package to
# analyze microporous materials
#
#*******************************************

_cell_length_a		17.1164(0)
_cell_length_b		16.8568(0)
_cell_length_c		17.9972(0)
_cell_angle_alpha		90(0)
_cell_angle_beta		90(0)
_cell_angle_gamma		119.934(0)

_symmetry_space_group_name_H-M		'P1'
_symmetry_Int_Tables_number		1
_symmetry_cell_setting		Monoclinic

loop_
_symmetry_equiv_pos_as_xyz
'+x,+y,+z'

loop_
_atom_site_label
_atom_site_type_symbol
_atom_site_fract_x
_atom_site_fract_y
_atom_site_fract_z
0	Cl	0.749865	0.150345	0.0511199
0	Cl	0.908999	0.63363	0.737818
0	Cl	0.410703	0.299798	0.394116
0	Cl	0.285548	0.910399	0.563839
0	Cl	0.139426	0.420265	0.226442
0	Cl	0.626506	0.749003	0.894752
0	Cl	0.772849	0.866251	0.617
0	Cl	0.167286	0.950129	0.305931
0	Cl	0.105417	0.265823	0.958312
0	Cl	0.25484	0.179634	0.135165
0	Cl	0.865397	0.105079	0.79319
0	Cl	0.922346	0.780077	0.470252
0	N	0.722554	0.183328	0.435616
0	N	0.870165	0.58028	0.119526
0	N	0.46862	0.323605	0.777289
0	N	0.313807	0.871913	0.946201
0	N	0.168899	0.473099	0.609921
0	N	0.566884	0.726922	0.277909
0	N	0.665039	0.0323134	0.317151
0	N	0.0200508	0.678609	0.00429466
0	N	0.379317	0.384093	0.659159
0	N	0.369788	0.023596	0.829556
0	N	0.0209873	0.380562	0.490876
0	N	0.657268	0.666927	0.161293
0	H	0.647619	0.969349	0.29188
0	H	0.0817873	0.724001	0.978518
0	H	0.334572	0.401615	0.633629
0	H	0.387408	0.0867316	0.804253
0	H	0.959526	0.336372	0.464086
0	H	0.703103	0.65046	0.136745
0	N	0.745329	0.287272	0.617284
0	N	0.756594	0.487814	0.293096
0	N	0.551129	0.299664	0.95741
0	N	0.29371	0.771011	0.130103
0	N	0.280647	0.562686	0.785503
0	N	0.478606	0.756351	0.451194
0	H	0.814552	0.316852	0.621077
0	H	0.722822	0.524339	0.294418
0	H	0.511373	0.229343	0.961029
0	H	0.224737	0.742207	0.135636
0	H	0.31302	0.524772	0.786971
0	H	0.518929	0.826804	0.45328
0	O	0.866653	0.275387	0.398456
0	O	0.772639	0.62495	0.0794793
0	O	0.419001	0.178459	0.738729
0	O	0.17003	0.778717	0.908869
0	O	0.266143	0.427471	0.571623
0	O	0.615471	0.870952	0.236734
0	O	0.58247	0.950047	0.41433
0	O	0.100687	0.676359	0.101772
0	O	0.380507	0.466327	0.757474
0	O	0.452358	0.104393	0.927227
0	O	0.938922	0.380796	0.587897
0	O	0.657223	0.585472	0.259806
0	O	0.614371	0.182024	0.561507
0	O	0.873909	0.474706	0.246639
0	O	0.578606	0.432801	0.901822
0	O	0.422606	0.870135	0.0686342
0	O	0.167856	0.581575	0.736426
0	O	0.456104	0.620906	0.403278
0	C	0.78834	0.221445	0.379582
0	C	0.83025	0.604631	0.0626012
0	C	0.442723	0.258009	0.720767
0	C	0.248293	0.833273	0.890183
0	C	0.209379	0.44863	0.553488
0	C	0.591569	0.791026	0.220354
0	C	0.765469	0.199714	0.299912
0	C	0.854168	0.604079	0.983702
0	C	0.444339	0.28196	0.641392
0	C	0.271447	0.855641	0.810728
0	C	0.187072	0.449951	0.474206
0	C	0.589035	0.765512	0.141322
0	C	0.810952	0.273036	0.249445
0	C	0.782115	0.57104	0.932383
0	C	0.472548	0.237075	0.590716
0	C	0.228519	0.782588	0.75962
0	C	0.26019	0.480845	0.424069
0	C	0.559435	0.80862	0.0901448
0	H	0.85226	0.343203	0.27138
0	H	0.712192	0.539542	0.952919
0	H	0.501444	0.195899	0.611989
0	H	0.189083	0.711754	0.780464
0	H	0.329429	0.511143	0.446076
0	H	0.529253	0.84894	0.110883
0	C	0.805346	0.25852	0.173144
0	C	0.797957	0.578054	0.856364
0	C	0.464012	0.243334	0.514498
0	C	0.234427	0.798223	0.683454
0	C	0.246463	0.473342	0.34776
0	C	0.568597	0.802031	0.0140803
0	H	0.841214	0.316824	0.135223
0	H	0.741523	0.551481	0.817254
0	H	0.487029	0.208701	0.476155
0	H	0.201377	0.740476	0.644778
0	H	0.30423	0.498171	0.309842
0	H	0.544844	0.835451	0.975152
0	C	0.754659	0.168845	0.1462
0	C	0.887557	0.621067	0.831708
0	C	0.42492	0.293956	0.488505
0	C	0.282058	0.888836	0.658006
0	C	0.157818	0.432726	0.321097
0	C	0.60991	0.75315	0.98893
0	C	0.707807	0.0948882	0.193493
0	C	0.960258	0.653636	0.879891
0	C	0.398036	0.34068	0.535891
0	C	0.327077	0.962454	0.705859
0	C	0.0841972	0.403085	0.367972
0	C	0.637742	0.707735	0.03691
0	H	0.668647	0.0249447	0.171727
0	H	0.0299317	0.687241	0.859031
0	H	0.367699	0.3801	0.514345
0	H	0.364486	0.0330465	0.684885
0	H	0.0152313	0.371706	0.345952
0	H	0.669541	0.669496	0.0159376
0	C	0.712357	0.110588	0.271233
0	C	0.943317	0.643723	0.957189
0	C	0.4091	0.335803	0.613418
0	C	0.32311	0.945586	0.783215
0	C	0.0990202	0.412986	0.445685
0	C	0.626001	0.71287	0.114319
0	C	0.624091	0.026105	0.386111
0	C	0.0263655	0.641628	0.0724895
0	C	0.414496	0.425288	0.728182
0	C	0.411797	0.0290016	0.897844
0	C	0.0140016	0.415304	0.559964
0	C	0.622713	0.626059	0.230529
0	C	0.628261	0.110263	0.422945
0	C	0.94344	0.559228	0.106948
0	C	0.49309	0.420085	0.764374
0	C	0.408382	0.944253	0.932894
0	C	0.0964756	0.495311	0.597284
0	C	0.543634	0.630562	0.266507
0	H	0.594397	0.0860935	0.479723
0	H	0.966115	0.547101	0.163482
0	H	0.504426	0.455214	0.820885
0	H	0.443526	0.967673	0.989193
0	H	0.0723784	0.505016	0.654044
0	H	0.533271	0.596871	0.323477
0	C	0.572286	0.143494	0.380068
0	C	0.911553	0.471313	0.0609774
0	C	0.581826	0.472423	0.720806
0	C	0.461351	0.909039	0.887969
0	C	0.129907	0.585526	0.554342
0	C	0.454864	0.575472	0.223337
0	H	0.60739	0.180925	0.329065
0	H	0.867197	0.467544	0.0147489
0	H	0.581927	0.433476	0.671343
0	H	0.421056	0.865937	0.840819
0	H	0.167817	0.587428	0.503952
0	H	0.450906	0.615381	0.176144
0	H	0.565948	0.19429	0.415667
0	H	0.868309	0.411915	0.0978399
0	H	0.636776	0.477516	0.7574
0	H	0.473015	0.862802	0.925098
0	H	0.179204	0.642367	0.590498
0	H	0.398621	0.563906	0.261584
0	C	0.477419	0.0638267	0.36014
0	C	0.989464	0.459811	0.0298031
0	C	0.603943	0.569416	0.696681
0	C	0.552838	0.986292	0.858802
0	C	0.052716	0.603652	0.532744
0	C	0.439515	0.482238	0.195015
0	H	0.485872	0.0153632	0.322856
0	H	0.0327469	0.520054	0.993558
0	H	0.55046	0.563031	0.657296
0	H	0.539935	0.0314566	0.821183
0	H	0.00388604	0.546178	0.496478
0	H	0.497044	0.494528	0.157942
0	C	0.424349	0.0107732	0.428964
0	C	0.0481858	0.455113	0.0918989
0	C	0.606782	0.627827	0.762917
0	C	0.614553	0.0450273	0.921978
0	C	0.00207447	0.608532	0.601214
0	C	0.435038	0.420381	0.25918
0	H	0.460378	0.983632	0.461169
0	H	0.0736308	0.51403	0.129606
0	H	0.540077	0.601632	0.788357
0	H	0.58334	0.0757575	0.956012
0	H	0.964843	0.54202	0.629308
0	H	0.494929	0.453861	0.294922
0	H	0.359178	0.951683	0.412533
0	H	0.107601	0.454856	0.0685516
0	H	0.630427	0.698682	0.745824
0	H	0.677649	0.10195	0.899606
0	H	0.953086	0.629634	0.585849
0	H	0.430939	0.357163	0.238036
0	H	0.41037	0.0533182	0.466591
0	H	0.010783	0.39299	0.125428
0	H	0.652713	0.62978	0.806369
0	H	0.632565	0.00518139	0.959223
0	H	0.0480332	0.658139	0.64215
0	H	0.375768	0.400653	0.294295
0	C	0.424747	0.100333	0.317148
0	C	0.951506	0.373662	0.981269
0	C	0.694457	0.615965	0.655578
0	C	0.59916	0.944878	0.812936
0	C	0.0906659	0.692423	0.487727
0	C	0.352936	0.434942	0.148674
0	H	0.46213	0.140448	0.268051
0	H	0.911329	0.376151	0.934686
0	H	0.69536	0.574615	0.608504
0	H	0.557462	0.90481	0.76541
0	H	0.130881	0.692653	0.439829
0	H	0.354012	0.477985	0.102195
0	H	0.409302	0.144234	0.35175
0	H	0.908594	0.311176	0.012978
0	H	0.750727	0.62892	0.692313
0	H	0.613986	0.899498	0.846208
0	H	0.133694	0.752768	0.521595
0	H	0.292905	0.41734	0.182103
0	H	0.359961	0.0439955	0.297564
0	H	0.00629547	0.365528	0.957712
0	H	0.709002	0.682464	0.633252
0	H	0.663784	0.998501	0.790598
0	H	0.0361327	0.702111	0.465893
0	H	0.343364	0.370691	0.124965
0	C	0.755428	0.196891	0.514182
0	C	0.852397	0.597666	0.197434
0	C	0.451073	0.289596	0.855605
0	C	0.280872	0.856514	0.0246567
0	C	0.185747	0.45566	0.688143
0	C	0.58389	0.762616	0.355722
0	H	0.827261	0.257532	0.514664
0	H	0.79072	0.606967	0.195854
0	H	0.4404	0.21709	0.854972
0	H	0.209724	0.794632	0.0247299
0	H	0.246644	0.445106	0.686995
0	H	0.596215	0.83577	0.353549
0	C	0.757877	0.113061	0.541606
0	C	0.931386	0.685006	0.227102
0	C	0.365554	0.284748	0.884274
0	C	0.27608	0.938495	0.0534705
0	C	0.105783	0.36884	0.717554
0	C	0.667579	0.765894	0.387044
0	C	0.693949	0.0509136	0.591711
0	C	0.996211	0.684002	0.274017
0	C	0.366905	0.348087	0.935386
0	C	0.340444	0.00129317	0.102964
0	C	0.0438631	0.370527	0.767513
0	C	0.66285	0.698512	0.435442
0	H	0.639571	0.0611821	0.612499
0	H	0.990893	0.619083	0.290925
0	H	0.430767	0.403468	0.956796
0	H	0.396825	0.993104	0.121612
0	H	0.0521996	0.435629	0.787481
0	H	0.597488	0.641378	0.452512
0	C	0.698641	0.974462	0.615482
0	C	0.0687334	0.766193	0.299343
0	C	0.286111	0.34142	0.959223
0	C	0.333436	0.0756278	0.128836
0	C	0.97014	0.288657	0.791958
0	C	0.741856	0.703472	0.462064
0	H	0.649158	0.926077	0.654763
0	H	0.119361	0.765639	0.336222
0	H	0.286859	0.390867	0.999158
0	H	0.383379	0.124464	0.167795
0	H	0.921484	0.28973	0.831009
0	H	0.738458	0.651092	0.500058
0	C	0.76721	0.960851	0.587835
0	C	0.0759691	0.848609	0.276346
0	C	0.204923	0.271869	0.930655
0	C	0.262434	0.0868626	0.10379
0	C	0.958667	0.20592	0.765093
0	C	0.824827	0.775637	0.438995
0	C	0.831324	0.0213464	0.537355
0	C	0.0120762	0.851448	0.229807
0	C	0.201796	0.207535	0.879971
0	C	0.197812	0.0256086	0.0540356
0	C	0.0198912	0.20239	0.715754
0	C	0.831361	0.844001	0.391187
0	H	0.883937	0.00887019	0.51616
0	H	0.0190135	0.916717	0.212677
0	H	0.137503	0.153464	0.858596
0	H	0.143027	0.0358887	0.0350072
0	H	0.00985469	0.136896	0.695737
0	H	0.89704	0.900025	0.37426
0	C	0.826394	0.0978736	0.514576
0	C	0.939423	0.768904	0.205393
0	C	0.282779	0.214293	0.857068
0	C	0.20497	0.951053	0.0291038
0	C	0.0938509	0.284517	0.692318
0	C	0.752008	0.838733	0.365367
0	H	0.876101	0.146097	0.475285
0	H	0.888836	0.769741	0.16886
0	H	0.281741	0.164709	0.817373
0	H	0.155015	0.902439	0.990192
0	H	0.142454	0.283087	0.653743
0	H	0.755688	0.891342	0.327702
0	C	0.697093	0.22055	0.565496
0	C	0.829738	0.514148	0.247456
0	C	0.533297	0.348902	0.906117
0	C	0.340283	0.833861	0.0753566
0	C	0.209473	0.539562	0.738212
0	C	0.499833	0.705066	0.404947
0	C	0.699803	0.310638	0.677325
0	C	0.729862	0.413837	0.349893
0	C	0.623349	0.34537	0.0146852
0	C	0.341425	0.749328	0.189299
0	C	0.307609	0.635021	0.843751
0	C	0.40185	0.713781	0.504946
0	H	0.643828	0.316977	0.650441
0	H	0.724801	0.352607	0.320381
0	H	0.683501	0.40272	0.98608
0	H	0.399957	0.747913	0.162173
0	H	0.313083	0.697254	0.815757
0	H	0.341556	0.661016	0.473239
0	C	0.768365	0.403312	0.711886
0	C	0.636788	0.389293	0.381459
0	C	0.648669	0.275416	0.0443535
0	C	0.276219	0.654079	0.221533
0	C	0.400552	0.658042	0.874728
0	C	0.382617	0.788507	0.533686
0	H	0.802379	0.455531	0.667936
0	H	0.588422	0.376042	0.335711
0	H	0.662213	0.241289	0.997504
0	H	0.244807	0.603363	0.176155
0	H	0.448949	0.672449	0.828776
0	H	0.375925	0.827178	0.486625
0	H	0.730995	0.427963	0.74628
0	H	0.609631	0.323801	0.412527
0	H	0.712918	0.312849	0.0754568
0	H	0.315849	0.631177	0.254843
0	H	0.42808	0.722408	0.907179
0	H	0.316125	0.754766	0.561774
0	C	0.838808	0.39668	0.760072
0	C	0.6414	0.464113	0.432856
0	C	0.575702	0.203472	0.0950925
0	C	0.202836	0.654247	0.270326
0	C	0.395386	0.581497	0.924262
0	C	0.455416	0.854331	0.587845
0	H	0.884153	0.46373	0.786126
0	H	0.574145	0.442138	0.456863
0	H	0.598352	0.157159	0.117529
0	H	0.160059	0.585587	0.29483
0	H	0.462692	0.601787	0.947309
0	H	0.438525	0.905713	0.608707
0	H	0.882799	0.381453	0.724594
0	H	0.658844	0.526581	0.400033
0	H	0.514154	0.159204	0.0621861
0	H	0.15693	0.66747	0.235563
0	H	0.376533	0.519506	0.890265
0	H	0.520386	0.89381	0.557952
0	C	0.793207	0.322712	0.819898
0	C	0.710548	0.486382	0.495052
0	C	0.553441	0.249394	0.158728
0	C	0.244773	0.726401	0.331861
0	C	0.327102	0.558998	0.987221
0	C	0.465762	0.801369	0.652748
0	H	0.755035	0.341658	0.858728
0	H	0.689088	0.425662	0.531043
0	H	0.613439	0.288188	0.19448
0	H	0.28522	0.709187	0.369621
0	H	0.349292	0.619325	0.0237985
0	H	0.401811	0.765715	0.684388
0	H	0.845379	0.318562	0.854095
0	H	0.713202	0.541153	0.531692
0	H	0.500349	0.196297	0.19523
0	H	0.190493	0.725611	0.366849
0	H	0.324443	0.503716	0.0231382
0	H	0.517274	0.849627	0.692673
0	C	0.729956	0.229496	0.784396
0	C	0.804216	0.516718	0.462756
0	C	0.521848	0.313719	0.128394
0	C	0.304212	0.82196	0.298717
0	C	0.23337	0.529571	0.95552
0	C	0.491476	0.731649	0.624314
0	H	0.769308	0.207019	0.750299
0	H	0.829182	0.581778	0.431744
0	H	0.457665	0.273976	0.097593
0	H	0.262562	0.842596	0.265756
0	H	0.208362	0.46526	0.923436
0	H	0.558723	0.767542	0.597553
0	H	0.697041	0.176483	0.828263
0	H	0.853269	0.531659	0.508205
0	H	0.506465	0.34693	0.175042
0	H	0.334493	0.873473	0.343988
0	H	0.184085	0.513214	0.00141997
0	H	0.497532	0.692754	0.671444
0	C	0.658374	0.234014	0.736367
0	C	0.801619	0.442785	0.41162
0	C	0.593367	0.386696	0.0775147
0	C	0.378603	0.824251	0.249855
0	C	0.23587	0.604536	0.905727
0	C	0.421291	0.665096	0.568937
0	H	0.612562	0.246016	0.772154
0	H	0.786914	0.381373	0.444731
0	H	0.653533	0.433705	0.11066
0	H	0.426801	0.814986	0.284852
0	H	0.250507	0.665163	0.939868
0	H	0.357285	0.620411	0.598566
0	H	0.615111	0.167284	0.708893
0	H	0.868801	0.46663	0.386314
0	H	0.568034	0.430017	0.0533101
0	H	0.418549	0.892408	0.223622
0	H	0.168652	0.581073	0.880734
0	H	0.443257	0.618414	0.545721
