#******************************************
#
# CIF file created by Zeo++
# Zeo++ is an open source package to
# analyze microporous materials
#
#*******************************************

_cell_length_a		19.1635(0)
_cell_length_b		18.963(0)
_cell_length_c		9.97866(0)
_cell_angle_alpha		90(0)
_cell_angle_beta		90(0)
_cell_angle_gamma		120.064(0)

_symmetry_space_group_name_H-M		'P1'
_symmetry_Int_Tables_number		1
_symmetry_cell_setting		Monoclinic

loop_
_symmetry_equiv_pos_as_xyz
'+x,+y,+z'

loop_
_atom_site_label
_atom_site_type_symbol
_atom_site_fract_x
_atom_site_fract_y
_atom_site_fract_z
0	N	0.883604	0.776494	0.67649
0	N	0.240083	0.122989	0.336965
0	N	0.895434	0.130182	0.998023
0	C	0.88643	0.790733	0.9223
0	C	0.219154	0.109016	0.582063
0	C	0.900382	0.120932	0.24471
0	O	0.882434	0.817999	0.0300999
0	O	0.19092	0.0773891	0.689088
0	O	0.929857	0.12509	0.353896
0	C	0.877227	0.822987	0.787762
0	C	0.19123	0.0687326	0.445432
0	C	0.944777	0.133489	0.112207
0	C	0.93989	0.915557	0.775833
0	C	0.100127	0.0398045	0.424913
0	C	0.973821	0.0703199	0.100651
0	C	0.0264614	0.931998	0.773924
0	C	0.085123	0.111674	0.419717
0	C	0.90376	0.983212	0.088023
0	C	0.91985	0.94953	0.652131
0	C	0.0713463	0.987277	0.29844
0	C	0.0326686	0.0938474	0.983625
0	O	0.899145	0.725712	0.911641
0	O	0.28297	0.187513	0.572531
0	O	0.822308	0.104958	0.22984
0	C	0.94549	0.64159	0.0214519
0	C	0.369189	0.317803	0.679169
0	C	0.692412	0.0663299	0.333197
0	O	0.975704	0.631551	0.123602
0	O	0.378095	0.360138	0.77855
0	O	0.650179	0.0333571	0.432536
0	C	0.894415	0.682705	0.0358049
0	C	0.326665	0.225	0.696119
0	C	0.784398	0.114758	0.350211
0	C	0.807072	0.619492	0.0619094
0	C	0.387756	0.197886	0.720308
0	C	0.813057	0.204692	0.366965
0	N	0.954535	0.614048	0.899245
0	N	0.399391	0.352181	0.556335
0	N	0.658868	0.0653328	0.21149
0	C	0.0756764	0.60704	0.864255
0	C	0.406071	0.481723	0.519573
0	C	0.531951	0.940123	0.181103
0	O	0.104338	0.657394	0.773236
0	O	0.356887	0.462742	0.428094
0	O	0.559006	0.910714	0.10061
0	C	0.985071	0.556097	0.894634
0	C	0.456641	0.4409	0.546981
0	C	0.570676	0.0325957	0.201796
0	C	0.938961	0.489283	0.787058
0	C	0.519719	0.46026	0.434165
0	C	0.551902	0.07307	0.0819449
0	C	0.974665	0.433157	0.778637
0	C	0.575287	0.552517	0.423728
0	C	0.460947	0.0379986	0.0703597
0	C	0.849168	0.441108	0.822788
0	C	0.567641	0.417371	0.463196
0	C	0.596547	0.165749	0.0986928
0	N	0.12958	0.599716	0.947725
0	N	0.414465	0.54342	0.604292
0	N	0.465665	0.885349	0.255021
0	C	0.256391	0.74142	0.955073
0	C	0.273989	0.529008	0.60562
0	C	0.480471	0.757102	0.257791
0	O	0.329932	0.784016	0.966239
0	O	0.230481	0.559331	0.601011
0	O	0.450666	0.683035	0.247392
0	C	0.218186	0.649332	0.926192
0	C	0.365601	0.583392	0.581666
0	C	0.427881	0.796095	0.229548
0	C	0.253887	0.613257	0.0251192
0	C	0.399749	0.65425	0.683136
0	C	0.354201	0.757451	0.32382
0	C	0.190625	0.572306	0.136452
0	C	0.4379	0.62942	0.795977
0	C	0.374658	0.819067	0.438455
0	C	0.109155	0.552059	0.0747799
0	C	0.459592	0.568687	0.733507
0	C	0.433317	0.903205	0.378356
0	N	0.207228	0.774944	0.971962
0	N	0.242143	0.44736	0.637866
0	N	0.559204	0.805476	0.302708
0	C	0.242018	0.912143	0.884123
0	C	0.108213	0.340235	0.548528
0	C	0.664081	0.773042	0.220872
0	O	0.272391	0.985585	0.881818
0	O	0.0375161	0.288513	0.551681
0	O	0.7062	0.742169	0.222457
0	C	0.242306	0.861863	0.00291655
0	C	0.155821	0.395442	0.665357
0	C	0.609919	0.770183	0.335742
0	C	0.198778	0.875948	0.123188
0	C	0.140518	0.341465	0.792135
0	C	0.664089	0.81339	0.460189
0	C	0.10779	0.8366	0.10287
0	C	0.181492	0.290173	0.784011
0	C	0.716615	0.905455	0.440699
0	C	0.218474	0.8442	0.249809
0	C	0.167565	0.395504	0.916574
0	C	0.61087	0.793985	0.584218
0	O	0.203097	0.865963	0.773641
0	O	0.152141	0.354872	0.432756
0	O	0.661119	0.814512	0.110143
0	C	0.135695	0.851112	0.563644
0	C	0.166417	0.301674	0.222156
0	C	0.714314	0.880258	0.897019
0	O	0.11671	0.87816	0.46638
0	O	0.139533	0.256416	0.123724
0	O	0.757206	0.895369	0.796845
0	C	0.202537	0.912372	0.656375
0	C	0.106129	0.308262	0.315178
0	C	0.70782	0.814112	0.99389
0	C	0.2845	0.951578	0.589638
0	C	0.0701902	0.354366	0.247792
0	C	0.663669	0.730898	0.928165
0	N	0.0975833	0.769342	0.592461
0	N	0.247427	0.344511	0.250953
0	N	0.674588	0.922067	0.925262
0	C	0.95863	0.673797	0.532381
0	C	0.342413	0.301096	0.190365
0	C	0.716788	0.0603462	0.856259
0	O	0.924483	0.623922	0.622794
0	O	0.392758	0.317113	0.279287
0	O	0.701415	0.0979091	0.941183
0	C	0.0474702	0.707486	0.490907
0	C	0.308834	0.356679	0.149183
0	C	0.660879	0.969722	0.821116
0	C	0.0660031	0.636314	0.48533
0	C	0.378906	0.447003	0.145312
0	C	0.572243	0.952206	0.820399
0	C	0.0228813	0.582436	0.364573
0	C	0.440113	0.456061	0.0388838
0	C	0.560514	0.995618	0.700894
0	C	0.156626	0.667939	0.477776
0	C	0.346771	0.504909	0.118939
0	C	0.510942	0.861109	0.819154
0	N	0.914342	0.701704	0.464137
0	N	0.314844	0.228357	0.122585
0	N	0.789451	0.102963	0.789627
0	C	0.815237	0.712107	0.620143
0	C	0.304524	0.118966	0.282651
0	C	0.898586	0.20003	0.94845
0	O	0.747523	0.691986	0.661554
0	O	0.32463	0.0709826	0.324931
0	O	0.943945	0.267576	0.995939
0	C	0.82788	0.671687	0.495918
0	C	0.344298	0.171216	0.157008
0	C	0.847428	0.189808	0.822894
0	C	0.796864	0.698701	0.375405
0	C	0.315988	0.111501	0.0383106
0	C	0.905216	0.220382	0.702507
0	C	0.871631	0.774424	0.320098
0	C	0.238448	0.108386	0.989044
0	C	0.904327	0.144021	0.648096
0	C	0.943542	0.762955	0.353582
0	C	0.250349	0.193229	0.0184657
0	C	0.819983	0.0724311	0.679445
0	H	0.940394	0.789722	0.650992
0	H	0.227612	0.167624	0.311624
0	H	0.852486	0.0734242	0.967594
0	H	0.814079	0.815606	0.787682
0	H	0.198871	0.012543	0.44676
0	H	0.000787085	0.196964	0.117003
0	H	0.93159	0.94546	0.867035
0	H	0.0672657	0.000386593	0.513348
0	H	0.00740127	0.0753036	0.19588
0	H	0.0698073	0.997857	0.764815
0	H	0.0200091	0.090705	0.416533
0	H	0.925619	0.939219	0.089262
0	H	0.0420661	0.911426	0.865796
0	H	0.109238	0.151414	0.507465
0	H	0.860456	0.966033	0.170068
0	H	0.0382321	0.903185	0.688398
0	H	0.111451	0.149453	0.330112
0	H	0.870991	0.972837	0.993153
0	H	0.95982	0.0155015	0.643394
0	H	0.00601374	0.959461	0.285056
0	H	0.0576284	0.0530799	0.976327
0	H	0.924926	0.921612	0.559234
0	H	0.100478	0.0224547	0.207724
0	H	0.0035668	0.0916229	0.887953
0	H	0.857327	0.937751	0.65725
0	H	0.0850561	0.937175	0.303645
0	H	0.0838583	0.156563	0.995032
0	H	0.921173	0.729027	0.118791
0	H	0.281666	0.206985	0.780062
0	H	0.800908	0.0886112	0.437807
0	H	0.801517	0.576436	0.140545
0	H	0.429335	0.232768	0.802058
0	H	0.778821	0.215049	0.445211
0	H	0.772599	0.648622	0.0952149
0	H	0.357577	0.132916	0.748682
0	H	0.877181	0.23868	0.395297
0	H	0.777378	0.58408	0.971559
0	H	0.424133	0.205321	0.630718
0	H	0.806856	0.231943	0.273646
0	H	0.937777	0.62821	0.808789
0	H	0.385217	0.319315	0.46788
0	H	0.690964	0.0817942	0.122047
0	H	0.974763	0.525731	0.995758
0	H	0.489347	0.462337	0.645542
0	H	0.54911	0.0463101	0.297754
0	H	0.946156	0.520244	0.687549
0	H	0.486415	0.43644	0.336498
0	H	0.574511	0.0580335	0.987258
0	H	0.0392079	0.46679	0.754879
0	H	0.541817	0.583849	0.399637
0	H	0.429558	0.972642	0.0463748
0	H	0.96676	0.399124	0.872223
0	H	0.609501	0.579247	0.516355
0	H	0.4346	0.0463066	0.162555
0	H	0.944907	0.387453	0.699727
0	H	0.61989	0.567805	0.343729
0	H	0.446691	0.0682436	0.99007
0	H	0.821447	0.479574	0.817736
0	H	0.52919	0.35083	0.45997
0	H	0.662116	0.19157	0.0901618
0	H	0.815977	0.39057	0.752798
0	H	0.615213	0.433541	0.387813
0	H	0.579442	0.194639	0.0201563
0	H	0.838909	0.41499	0.923736
0	H	0.597191	0.433841	0.56146
0	H	0.584119	0.184313	0.195484
0	H	0.231977	0.643361	0.818278
0	H	0.373225	0.604568	0.474381
0	H	0.410014	0.784403	0.11997
0	H	0.265459	0.568587	0.973274
0	H	0.445331	0.711191	0.633969
0	H	0.299932	0.747594	0.268634
0	H	0.312888	0.660559	0.0656152
0	H	0.352582	0.666476	0.721029
0	H	0.340703	0.696815	0.360557
0	H	0.205076	0.613848	0.223008
0	H	0.394938	0.600663	0.879775
0	H	0.403262	0.805063	0.522706
0	H	0.189215	0.516833	0.175084
0	H	0.491424	0.682825	0.838918
0	H	0.31999	0.816665	0.479366
0	H	0.0711525	0.485982	0.0525612
0	H	0.525334	0.597316	0.713514
0	H	0.402074	0.937218	0.35074
0	H	0.0741591	0.570548	0.141657
0	H	0.441014	0.514176	0.798963
0	H	0.483471	0.941618	0.448325
0	H	0.147574	0.74451	0.946989
0	H	0.274631	0.418386	0.631205
0	H	0.58921	0.867224	0.290812
0	H	0.308535	0.887658	0.0304154
0	H	0.128843	0.436281	0.682884
0	H	0.569349	0.702813	0.358964
0	H	0.22522	0.943826	0.132899
0	H	0.0733422	0.298908	0.798573
0	H	0.704596	0.78692	0.474477
0	H	0.28368	0.871356	0.264024
0	H	0.140533	0.434418	0.922293
0	H	0.572345	0.728261	0.599421
0	H	0.194575	0.859712	0.338019
0	H	0.148917	0.357033	0.00676672
0	H	0.648844	0.818851	0.673977
0	H	0.191653	0.777612	0.248209
0	H	0.23361	0.434903	0.921593
0	H	0.571898	0.821093	0.578748
0	H	0.0919478	0.851833	0.00615743
0	H	0.16813	0.255649	0.690584
0	H	0.745145	0.921919	0.341942
0	H	0.0772889	0.769815	0.110839
0	H	0.247434	0.327499	0.794346
0	H	0.681529	0.936579	0.453728
0	H	0.0818866	0.857548	0.181506
0	H	0.16025	0.245949	0.867362
0	H	0.764741	0.930912	0.51612
0	H	0.18676	0.958935	0.69218
0	H	0.0584511	0.245914	0.349217
0	H	0.769234	0.82941	0.0306595
0	H	0.284932	0.97879	0.491143
0	H	0.0409435	0.326283	0.151121
0	H	0.690151	0.730106	0.829931
0	H	0.329894	0.00157371	0.651932
0	H	0.0232017	0.354611	0.310734
0	H	0.666732	0.684788	0.991012
0	H	0.305913	0.908272	0.57415
0	H	0.11598	0.418344	0.228209
0	H	0.599542	0.710285	0.912304
0	H	0.113143	0.746693	0.675017
0	H	0.269533	0.381662	0.334942
0	H	0.63716	0.907106	0.00836022
0	H	0.0596138	0.737089	0.389061
0	H	0.279935	0.33984	0.0470124
0	H	0.675609	0.954668	0.719498
0	H	0.0420165	0.599639	0.580008
0	H	0.409807	0.462091	0.245949
0	H	0.563358	0.979634	0.915083
0	H	0.0297228	0.528461	0.36326
0	H	0.489729	0.519083	0.0336013
0	H	0.497776	0.981387	0.694131
0	H	0.958135	0.561293	0.36371
0	H	0.466552	0.41769	0.0603494
0	H	0.597929	0.0621449	0.709067
0	H	0.0469135	0.614924	0.268696
0	H	0.412358	0.438873	0.938668
0	H	0.576384	0.978379	0.605206
0	H	0.168577	0.617172	0.465295
0	H	0.39674	0.568221	0.110305
0	H	0.448988	0.850386	0.813757
0	H	0.185479	0.71079	0.39502
0	H	0.310306	0.488976	0.0271006
0	H	0.520106	0.829672	0.73497
0	H	0.186953	0.697418	0.57207
0	H	0.310511	0.505668	0.203497
0	H	0.512759	0.831622	0.913096
0	H	0.795475	0.604337	0.51257
0	H	0.411091	0.20584	0.172295
0	H	0.814365	0.223753	0.840281
0	H	0.769276	0.649926	0.299451
0	H	0.362331	0.133097	0.959025
0	H	0.884568	0.24782	0.625949
0	H	0.748679	0.712398	0.403381
0	H	0.305014	0.0502767	0.0673292
0	H	0.967108	0.268259	0.73088
0	H	0.865178	0.780276	0.210747
0	H	0.227946	0.0921959	0.881207
0	H	0.918377	0.150512	0.53937
0	H	0.878694	0.83089	0.364716
0	H	0.185153	0.0605308	0.0423071
0	H	0.951708	0.135929	0.695966
0	H	0.997955	0.820748	0.385612
0	H	0.194101	0.19076	0.0555665
0	H	0.820756	0.0164251	0.711768
0	H	0.960955	0.738304	0.26588
0	H	0.27114	0.233074	0.927571
0	H	0.778962	0.0562177	0.590874
