#******************************************
#
# CIF file created by Zeo++
# Zeo++ is an open source package to
# analyze microporous materials
#
#*******************************************

_cell_length_a		26.7101(0)
_cell_length_b		11.4928(0)
_cell_length_c		12.3742(0)
_cell_angle_alpha		90(0)
_cell_angle_beta		90(0)
_cell_angle_gamma		90(0)

_symmetry_space_group_name_H-M		'P1'
_symmetry_Int_Tables_number		1
_symmetry_cell_setting		Monoclinic

loop_
_symmetry_equiv_pos_as_xyz
'+x,+y,+z'

loop_
_atom_site_label
_atom_site_type_symbol
_atom_site_fract_x
_atom_site_fract_y
_atom_site_fract_z
0	Br	0.834584	0.000280275	0.758687
0	Br	0.168689	0.00647153	0.758599
0	Br	0.670331	0.502641	0.248236
0	Br	0.332771	0.502993	0.24886
0	O	0.743759	0.219152	0.363974
0	O	0.259019	0.787449	0.364007
0	O	0.76117	0.720092	0.642465
0	O	0.242234	0.286632	0.642583
0	O	0.785064	0.316609	0.229576
0	O	0.216759	0.691009	0.23029
0	O	0.719147	0.81605	0.776661
0	O	0.284571	0.191352	0.776709
0	O	0.483479	0.352404	0.424609
0	O	0.519522	0.654221	0.424543
0	O	0.0204066	0.854884	0.583496
0	O	0.982621	0.151949	0.583508
0	O	0.809117	0.436332	0.730252
0	O	0.193972	0.570347	0.73065
0	O	0.69505	0.93563	0.275643
0	O	0.307856	0.0707569	0.275408
0	O	0.827709	0.162118	0.444377
0	O	0.175368	0.845197	0.445242
0	O	0.676769	0.662923	0.56307
0	O	0.326537	0.343076	0.563042
0	N	0.746631	0.13606	0.197202
0	N	0.256147	0.870408	0.197376
0	N	0.757732	0.635654	0.808625
0	N	0.245528	0.371176	0.808784
0	C	0.764195	0.304026	0.439654
0	C	0.238688	0.702791	0.439957
0	C	0.740333	0.804893	0.567239
0	C	0.262867	0.201527	0.567385
0	C	0.721697	0.351759	0.508725
0	C	0.28124	0.65494	0.508781
0	C	0.782517	0.853348	0.497828
0	C	0.220597	0.15329	0.498062
0	C	0.682741	0.269926	0.566981
0	C	0.320267	0.736659	0.566969
0	C	0.821535	0.771749	0.439544
0	C	0.181568	0.234893	0.439791
0	C	0.693722	0.139366	0.558207
0	C	0.309318	0.867233	0.5582
0	C	0.810543	0.64121	0.448345
0	C	0.192585	0.365433	0.448486
0	C	0.657911	0.063803	0.625143
0	C	0.345143	0.94276	0.625146
0	C	0.846409	0.565631	0.381583
0	C	0.156704	0.440989	0.38173
0	C	0.673955	0.0500583	0.743374
0	C	0.329061	0.95657	0.743348
0	C	0.830554	0.551933	0.263262
0	C	0.172502	0.454621	0.263359
0	C	0.674611	0.164508	0.807012
0	C	0.328428	0.842134	0.807007
0	C	0.829812	0.666353	0.199571
0	C	0.173258	0.340153	0.199747
0	C	0.715399	0.248969	0.768293
0	C	0.287663	0.757619	0.768317
0	C	0.788949	0.75063	0.238186
0	C	0.214116	0.255893	0.238424
0	C	0.697436	0.328113	0.677448
0	C	0.305606	0.678473	0.677448
0	C	0.806787	0.829849	0.329097
0	C	0.196277	0.176714	0.329357
0	C	0.738247	0.40278	0.619059
0	C	0.264755	0.603855	0.619145
0	C	0.76578	0.903925	0.387488
0	C	0.23727	0.102579	0.387712
0	C	0.791317	0.378886	0.656056
0	C	0.211732	0.627809	0.656416
0	C	0.712813	0.879064	0.350467
0	C	0.290225	0.127239	0.350446
0	C	0.819471	0.28636	0.602723
0	C	0.183575	0.720465	0.60327
0	C	0.684847	0.786668	0.404463
0	C	0.318341	0.21934	0.404481
0	C	0.805961	0.246796	0.504186
0	C	0.197045	0.760173	0.50475
0	C	0.698517	0.747495	0.503039
0	C	0.304727	0.258623	0.50305
0	C	0.761535	0.231211	0.258032
0	C	0.240868	0.775675	0.258331
0	C	0.742959	0.73107	0.74818
0	C	0.260487	0.275924	0.748255
0	C	0.766255	0.112322	0.0917733
0	C	0.23669	0.894291	0.0918515
0	C	0.738477	0.612435	0.914424
0	C	0.26475	0.394294	0.914635
0	C	0.752094	0.00535613	0.0446567
0	C	0.251014	0.00116585	0.044735
0	C	0.752627	0.50565	0.961858
0	C	0.25071	0.501115	0.962136
0	C	0.77155	0.974083	0.944435
0	C	0.231651	0.0324374	0.944434
0	C	0.733213	0.475061	0.062301
0	C	0.270061	0.531462	0.0627318
0	C	0.804583	0.0496548	0.891882
0	C	0.198579	0.956963	0.89184
0	C	0.700245	0.550944	0.114621
0	C	0.302884	0.455239	0.115056
0	C	0.817348	0.157537	0.935499
0	C	0.185746	0.84911	0.935375
0	C	0.687618	0.658773	0.0707373
0	C	0.315401	0.347371	0.0710966
0	C	0.798255	0.189135	0.0364427
0	C	0.204724	0.817527	0.0364252
0	C	0.706668	0.689755	0.969632
0	C	0.296386	0.316648	0.969906
0	C	0.630053	0.295255	0.528074
0	C	0.372937	0.711254	0.527985
0	C	0.874157	0.797199	0.478677
0	C	0.128925	0.209529	0.478882
0	C	0.590955	0.322654	0.599767
0	C	0.412042	0.683858	0.599671
0	C	0.913337	0.824692	0.407258
0	C	0.0897488	0.182095	0.407424
0	C	0.542578	0.342403	0.562298
0	C	0.460417	0.664122	0.562193
0	C	0.961634	0.844681	0.44515
0	C	0.041435	0.162154	0.44523
0	C	0.533106	0.333231	0.450601
0	C	0.469887	0.673326	0.450494
0	C	0.970865	0.835605	0.55693
0	C	0.0321725	0.171204	0.556999
0	C	0.571358	0.306721	0.37721
0	C	0.431628	0.699808	0.377115
0	C	0.932518	0.808966	0.630044
0	C	0.0705043	0.197799	0.630161
0	C	0.619563	0.287287	0.41719
0	C	0.383417	0.71919	0.417096
0	C	0.88443	0.789242	0.589667
0	C	0.118608	0.217509	0.589848
0	C	0.469034	0.34272	0.312129
0	C	0.533977	0.663755	0.312057
0	C	0.034443	0.845664	0.696256
0	C	0.968564	0.161015	0.696262
0	C	0.875149	0.112699	0.480537
0	C	0.127792	0.894065	0.481239
0	C	0.629312	0.613692	0.526754
0	C	0.373993	0.392329	0.526795
0	H	0.725093	0.0693217	0.233562
0	H	0.27788	0.936838	0.233694
0	H	0.779333	0.569068	0.772247
0	H	0.223815	0.437601	0.772503
0	H	0.726158	0.947217	0.0868156
0	H	0.276971	0.0592103	0.0870226
0	H	0.778471	0.44725	0.91979
0	H	0.224943	0.559707	0.920084
0	H	0.701861	0.418617	0.459627
0	H	0.301007	0.58812	0.459578
0	H	0.802221	0.920634	0.546645
0	H	0.200867	0.0860708	0.546894
0	H	0.667224	0.385219	0.708974
0	H	0.335807	0.62133	0.708926
0	H	0.836871	0.887325	0.297673
0	H	0.166173	0.119305	0.297983
0	H	0.711437	0.00821378	0.747785
0	H	0.291565	0.998347	0.747685
0	H	0.79317	0.509757	0.258563
0	H	0.20986	0.496914	0.258543
0	H	0.648449	0.987498	0.78383
0	H	0.354534	0.0192018	0.783816
0	H	0.856261	0.48977	0.222941
0	H	0.14674	0.516686	0.223059
0	H	0.649622	0.264107	0.36099
0	H	0.353347	0.742298	0.360899
0	H	0.854293	0.765665	0.64555
0	H	0.14872	0.24109	0.645788
0	H	0.564293	0.299453	0.291068
0	H	0.438693	0.707093	0.290974
0	H	0.939442	0.801741	0.716217
0	H	0.0635597	0.205011	0.716328
0	H	0.512104	0.363532	0.61708
0	H	0.490892	0.642981	0.616973
0	H	0.992199	0.865885	0.39062
0	H	0.0108835	0.140991	0.390664
0	H	0.598375	0.327575	0.686514
0	H	0.404624	0.678924	0.686414
0	H	0.906066	0.829468	0.320459
0	H	0.097038	0.177322	0.320626
0	H	0.869159	0.0584662	0.551701
0	H	0.133582	0.948181	0.552559
0	H	0.635086	0.561368	0.454291
0	H	0.36818	0.445086	0.454625
0	H	0.885833	0.0593181	0.410527
0	H	0.117098	0.947527	0.411262
0	H	0.619006	0.558446	0.595799
0	H	0.384383	0.447134	0.596077
0	H	0.902881	0.181284	0.495411
0	H	0.100167	0.825176	0.495797
0	H	0.601442	0.682431	0.513858
0	H	0.40182	0.323596	0.513474
0	H	0.429456	0.368509	0.314281
0	H	0.573541	0.637864	0.314242
0	H	0.0740656	0.871038	0.694622
0	H	0.928906	0.135961	0.694506
0	H	0.490668	0.402897	0.262133
0	H	0.512317	0.603578	0.262119
0	H	0.0127283	0.906394	0.745531
0	H	0.990176	0.0999841	0.745427
0	H	0.473156	0.252545	0.285094
0	H	0.529892	0.753911	0.284942
0	H	0.030046	0.755702	0.7237
0	H	0.973076	0.25087	0.723924
0	H	0.781662	0.378167	0.392066
0	H	0.221091	0.628664	0.392559
0	H	0.72283	0.878647	0.615348
0	H	0.280288	0.127697	0.615527
0	H	0.69154	0.113799	0.471723
0	H	0.311504	0.892783	0.471712
0	H	0.812668	0.615657	0.534863
0	H	0.190499	0.391041	0.53499
0	H	0.732877	0.121934	0.583094
0	H	0.270168	0.884714	0.58308
0	H	0.771406	0.623756	0.423317
0	H	0.231714	0.382819	0.423374
0	H	0.619387	0.0995279	0.621442
0	H	0.383649	0.906947	0.621515
0	H	0.88493	0.601332	0.385605
0	H	0.118176	0.40534	0.385835
0	H	0.655158	0.976463	0.587493
0	H	0.347943	0.0300652	0.587457
0	H	0.849058	0.478323	0.419252
0	H	0.154081	0.528331	0.419348
0	H	0.63735	0.206331	0.803346
0	H	0.365697	0.800341	0.803361
0	H	0.867031	0.708364	0.203225
0	H	0.136032	0.29814	0.203402
0	H	0.681147	0.144335	0.893581
0	H	0.321881	0.862324	0.893573
0	H	0.823295	0.646064	0.113004
0	H	0.179785	0.360375	0.113164
0	H	0.728072	0.303563	0.837039
0	H	0.275023	0.70301	0.837049
0	H	0.776275	0.805179	0.16943
0	H	0.226797	0.201304	0.169695
0	H	0.748814	0.198302	0.743038
0	H	0.254222	0.808237	0.743102
0	H	0.755548	0.699796	0.263324
0	H	0.247516	0.306752	0.263583
0	H	0.730592	0.497961	0.624405
0	H	0.272383	0.508663	0.624407
0	H	0.773128	0.999243	0.382066
0	H	0.229871	0.00727224	0.382383
0	H	0.760746	0.890962	0.907601
0	H	0.242552	0.115478	0.90755
0	H	0.744019	0.392171	0.0995245
0	H	0.259315	0.614307	0.100085
0	H	0.842184	0.217163	0.892451
0	H	0.160965	0.789467	0.892215
0	H	0.663001	0.718949	0.113704
0	H	0.339906	0.286949	0.114071
0	H	0.809024	0.272791	0.0720882
0	H	0.19391	0.733888	0.0720401
0	H	0.696041	0.773436	0.933821
0	H	0.306919	0.232881	0.934105
0	H	0.851527	0.25287	0.647256
0	H	0.151572	0.753979	0.647948
0	H	0.652773	0.752814	0.360276
0	H	0.350462	0.253028	0.360312
