#******************************************
#
# CIF file created by Zeo++
# Zeo++ is an open source package to
# analyze microporous materials
#
#*******************************************

_cell_length_a		17.5157(0)
_cell_length_b		15.4551(0)
_cell_length_c		21.3859(0)
_cell_angle_alpha		90(0)
_cell_angle_beta		90(0)
_cell_angle_gamma		90(0)

_symmetry_space_group_name_H-M		'P1'
_symmetry_Int_Tables_number		1
_symmetry_cell_setting		Monoclinic

loop_
_symmetry_equiv_pos_as_xyz
'+x,+y,+z'

loop_
_atom_site_label
_atom_site_type_symbol
_atom_site_fract_x
_atom_site_fract_y
_atom_site_fract_z
0	O	0.0438617	0.429345	0.367079
0	O	0.150307	0.56459	0.868815
0	O	0.676891	0.967977	0.659843
0	O	0.526646	0.0844352	0.162124
0	O	0.95484	0.607132	0.382772
0	O	0.257539	0.405617	0.893121
0	O	0.783303	0.12935	0.636478
0	O	0.438441	0.906194	0.145422
0	O	0.927345	0.385208	0.515944
0	O	0.25074	0.636905	0.0328079
0	O	0.769407	0.900532	0.490891
0	O	0.419635	0.135788	0.00844306
0	O	0.910645	0.540578	0.532121
0	O	0.289022	0.481915	0.0418396
0	O	0.804733	0.048784	0.486109
0	O	0.399169	0.982339	0.99596
0	O	0.971482	0.685707	0.482294
0	O	0.247709	0.326212	0.992526
0	O	0.772319	0.205371	0.535498
0	O	0.452208	0.831828	0.043721
0	H	0.948623	0.693659	0.439393
0	H	0.268129	0.318511	0.948785
0	H	0.794545	0.214421	0.578406
0	H	0.433889	0.81919	0.0873248
0	O	0.910282	0.424255	0.616095
0	O	0.273784	0.588304	0.129892
0	O	0.77894	0.94824	0.39241
0	O	0.40651	0.0958256	0.908395
0	C	0.970799	0.402276	0.572145
0	C	0.210734	0.604462	0.0872993
0	C	0.721692	0.93146	0.440297
0	C	0.465745	0.115541	0.954261
0	O	0.868511	0.639679	0.602465
0	O	0.34728	0.39303	0.111678
0	O	0.863671	0.131871	0.412968
0	O	0.349556	0.886452	0.92643
0	O	0.0111492	0.482129	0.272864
0	O	0.170799	0.504844	0.77409
0	O	0.680925	0.0167669	0.759351
0	O	0.507545	0.0363876	0.26043
0	O	0.816801	0.376696	0.319831
0	O	0.368236	0.647054	0.825321
0	O	0.880763	0.878739	0.705608
0	O	0.307468	0.13779	0.204969
0	O	0.263687	0.588386	0.532406
0	O	0.942303	0.382868	0.0347682
0	O	0.465671	0.168575	0.506611
0	O	0.746651	0.908228	0.00189169
0	N	0.892066	0.343338	0.237045
0	N	0.289123	0.668903	0.742876
0	N	0.799626	0.846805	0.784812
0	N	0.38176	0.172675	0.288144
0	H	0.904099	0.348539	0.190347
0	H	0.278927	0.668549	0.695897
0	H	0.788328	0.840003	0.831365
0	H	0.390183	0.172394	0.335426
0	C	0.0162406	0.60841	0.482888
0	C	0.194585	0.396678	0.992253
0	C	0.716563	0.137764	0.538798
0	C	0.499797	0.907016	0.0455069
0	C	0.135132	0.500689	0.42891
0	C	0.067082	0.487451	0.936155
0	C	0.589746	0.0519056	0.599846
0	C	0.619013	0.0107005	0.101439
0	O	0.000307065	0.277662	0.477274
0	O	0.150999	0.706145	0.988777
0	O	0.681765	0.819283	0.540736
0	O	0.494586	0.23782	0.0519422
0	C	0.123597	0.383869	0.62046
0	C	0.0564302	0.597432	0.128326
0	C	0.563823	0.941032	0.409938
0	C	0.62052	0.126421	0.912877
0	H	0.148404	0.357585	0.576104
0	H	0.0366415	0.623716	0.0823088
0	H	0.547838	0.915853	0.457255
0	H	0.639408	0.152783	0.9591
0	O	0.0750344	0.316195	0.240652
0	O	0.117305	0.661751	0.725604
0	O	0.625025	0.858136	0.794956
0	O	0.564838	0.205489	0.28685
0	H	0.0533717	0.342834	0.201038
0	H	0.150808	0.631365	0.693457
0	H	0.654029	0.88889	0.829852
0	H	0.543629	0.183042	0.327864
0	O	0.193592	0.577625	0.63289
0	O	0.00784535	0.396195	0.137774
0	O	0.51468	0.139688	0.400254
0	O	0.686411	0.932772	0.898908
0	C	0.090761	0.477325	0.609832
0	C	0.100134	0.509504	0.118529
0	C	0.609385	0.0283899	0.416972
0	C	0.584531	0.0339668	0.921181
0	C	0.0652112	0.516145	0.388659
0	C	0.138088	0.478795	0.896279
0	C	0.663644	0.0560114	0.636478
0	C	0.547967	0.997526	0.14079
0	H	0.0772129	0.558122	0.347181
0	H	0.130694	0.430116	0.857646
0	H	0.659718	0.101609	0.677285
0	H	0.558757	0.955096	0.18241
0	C	0.0299616	0.472642	0.557066
0	C	0.162297	0.525892	0.0681154
0	C	0.67552	0.00982863	0.463633
0	C	0.521163	0.0421965	0.971784
0	H	0.0581573	0.448537	0.513061
0	H	0.133522	0.547129	0.0236319
0	H	0.650022	0.98783	0.509208
0	H	0.547983	0.0654158	0.0166284
0	C	0.162317	0.532595	0.594118
0	C	0.0351682	0.446279	0.100251
0	C	0.546323	0.0928307	0.437714
0	C	0.654259	0.976295	0.93807
0	C	0.823138	0.576601	0.262327
0	C	0.381419	0.45338	0.772189
0	C	0.9004	0.0715306	0.762276
0	C	0.309304	0.937555	0.26511
0	H	0.863999	0.559541	0.225643
0	H	0.335794	0.470545	0.739559
0	H	0.855589	0.0616031	0.797089
0	H	0.350176	0.954424	0.301742
0	C	0.760944	0.395603	0.218029
0	C	0.42431	0.63536	0.722755
0	C	0.934565	0.881246	0.809047
0	C	0.250637	0.121557	0.307108
0	C	0.990807	0.560889	0.544016
0	C	0.213322	0.446373	0.0539913
0	C	0.72958	0.0872393	0.47638
0	C	0.477996	0.956366	0.984297
0	H	0.994151	0.606156	0.584728
0	H	0.217169	0.400075	0.0939599
0	H	0.73267	0.133279	0.436295
0	H	0.479335	0.911102	0.943619
0	C	0.147791	0.55377	0.478033
0	C	0.0579826	0.432196	0.984539
0	C	0.57959	0.107839	0.552015
0	C	0.632733	0.955853	0.0535522
0	C	0.941379	0.285275	0.274474
0	C	0.231978	0.711659	0.783504
0	C	0.743481	0.808999	0.740717
0	C	0.430814	0.231455	0.251025
0	H	0.91223	0.275524	0.322002
0	H	0.254165	0.70723	0.833806
0	H	0.768503	0.815229	0.691337
0	H	0.402874	0.239196	0.202814
0	C	0.917541	0.339542	0.648143
0	C	0.25265	0.663393	0.169475
0	C	0.75417	0.871941	0.355486
0	C	0.418926	0.179368	0.875917
0	H	0.867021	0.300173	0.637231
0	H	0.29771	0.712554	0.166592
0	H	0.799869	0.823529	0.355784
0	H	0.369642	0.221599	0.884073
0	H	0.923271	0.350689	0.698455
0	H	0.244144	0.640544	0.217426
0	H	0.740725	0.893128	0.307959
0	H	0.427344	0.166838	0.826076
0	C	0.853999	0.585809	0.563131
0	C	0.352382	0.448653	0.0721157
0	C	0.867765	0.077142	0.453152
0	C	0.3398	0.941027	0.966132
0	C	0.995614	0.550934	0.425108
0	C	0.210383	0.456562	0.9344
0	C	0.734211	0.0784117	0.596473
0	C	0.478669	0.963614	0.103623
0	H	0.958535	0.495426	0.440032
0	H	0.240522	0.517018	0.949038
0	H	0.763767	0.0178164	0.581085
0	H	0.441362	0.0192134	0.089311
0	C	0.0213973	0.322929	0.289573
0	C	0.154346	0.664026	0.783905
0	C	0.667306	0.859853	0.73894
0	C	0.511696	0.194517	0.23818
0	H	0.048292	0.284325	0.328418
0	H	0.112945	0.699507	0.814883
0	H	0.627817	0.828766	0.704049
0	H	0.538557	0.230863	0.19819
0	O	0.188592	0.38675	0.660487
0	O	0.986479	0.583298	0.160401
0	O	0.491318	0.955869	0.382208
0	O	0.690295	0.121723	0.879039
0	H	0.179854	0.423012	0.698712
0	H	0.993941	0.553261	0.201646
0	H	0.495559	0.982033	0.339341
0	H	0.684935	0.0890586	0.838796
0	C	0.94821	0.198691	0.241339
0	C	0.22467	0.80648	0.76627
0	C	0.732474	0.713587	0.75496
0	C	0.435761	0.319394	0.28254
0	C	0.120412	0.696162	0.427221
0	C	0.103393	0.295266	0.934137
0	C	0.631216	0.243107	0.599637
0	C	0.599137	0.815283	0.103703
0	H	0.0844362	0.754424	0.428113
0	H	0.14228	0.239758	0.937744
0	H	0.670742	0.297778	0.594273
0	H	0.565342	0.755624	0.100278
0	H	0.111209	0.665339	0.381834
0	H	0.115903	0.3265	0.889261
0	H	0.645502	0.211696	0.644019
0	H	0.584426	0.845262	0.148484
0	H	0.18015	0.717449	0.428924
0	H	0.0449443	0.269974	0.931768
0	H	0.573266	0.269558	0.603984
0	H	0.659553	0.796669	0.10554
0	C	0.940991	0.317934	0.474656
0	C	0.218231	0.687757	0.987018
0	C	0.746589	0.846677	0.538579
0	C	0.433558	0.20083	0.051259
0	C	0.182065	0.423693	0.41258
0	C	0.0146415	0.559745	0.920394
0	C	0.534386	0.983554	0.618299
0	C	0.667036	0.0869777	0.117288
0	H	0.237708	0.421716	0.436846
0	H	0.958634	0.554637	0.943967
0	H	0.476795	0.994338	0.598485
0	H	0.723	0.0862867	0.0935884
0	H	0.194879	0.422138	0.362036
0	H	0.00274901	0.561932	0.869853
0	H	0.526929	0.980808	0.669363
0	H	0.679129	0.0895959	0.167819
0	H	0.150795	0.363233	0.422891
0	H	0.0404716	0.62276	0.932763
0	H	0.55431	0.918989	0.603609
0	H	0.637523	0.148003	0.105696
0	C	0.118252	0.692062	0.542158
0	C	0.100298	0.300061	0.0493639
0	C	0.622517	0.237463	0.484567
0	C	0.599755	0.819493	0.988418
0	H	0.0886731	0.669547	0.584232
0	H	0.123327	0.327939	0.0924593
0	H	0.638402	0.20675	0.44036
0	H	0.577093	0.847181	0.945117
0	H	0.0979205	0.758794	0.535307
0	H	0.131021	0.2379	0.0446762
0	H	0.657941	0.296741	0.486457
0	H	0.570888	0.756378	0.992711
0	H	0.179733	0.696059	0.552286
0	H	0.0395828	0.284372	0.0562436
0	H	0.562573	0.258407	0.481197
0	H	0.661147	0.807148	0.982072
0	C	0.020531	0.419833	0.306174
0	C	0.162235	0.56924	0.805402
0	C	0.678235	0.95633	0.723436
0	C	0.511475	0.0966409	0.224446
0	C	0.990644	0.318613	0.610102
0	C	0.180353	0.679814	0.129468
0	C	0.68649	0.856224	0.400763
0	C	0.49069	0.197379	0.916191
0	H	0.987294	0.258672	0.581691
0	H	0.180264	0.742564	0.104418
0	H	0.688279	0.793447	0.425836
0	H	0.488783	0.257726	0.944165
0	C	0.668719	0.346566	0.141077
0	C	0.506434	0.693526	0.641777
0	C	0.0142943	0.820394	0.890708
0	C	0.161637	0.171911	0.386131
0	H	0.645316	0.295914	0.111224
0	H	0.521219	0.745052	0.609198
0	H	0.0282691	0.768149	0.923079
0	H	0.139819	0.222626	0.416789
0	C	0.102247	0.63758	0.4837
0	C	0.112367	0.355724	0.991033
0	C	0.63597	0.181918	0.542833
0	C	0.58457	0.874283	0.0468126
0	C	0.873734	0.308757	0.434036
0	C	0.279085	0.712147	0.94284
0	C	0.813069	0.831809	0.579571
0	C	0.364152	0.21255	0.0892033
0	H	0.886838	0.276772	0.388656
0	H	0.278543	0.782357	0.931735
0	H	0.839952	0.767591	0.572083
0	H	0.375871	0.241327	0.135882
0	H	0.844624	0.370226	0.42263
0	H	0.275121	0.677044	0.897404
0	H	0.798455	0.834233	0.6302
0	H	0.332249	0.151806	0.0977786
0	H	0.829765	0.266531	0.456236
0	H	0.337612	0.697921	0.959696
0	H	0.859522	0.879598	0.573174
0	H	0.323184	0.257778	0.0664384
0	C	0.752394	0.544179	0.263609
0	C	0.450584	0.489854	0.769482
0	C	0.965459	0.0262931	0.762859
0	C	0.239493	0.972345	0.262786
0	H	0.710508	0.562284	0.299199
0	H	0.496923	0.472039	0.801146
0	H	0.010785	0.0364623	0.728451
0	H	0.197623	0.955106	0.227075
0	C	0.064653	0.320325	0.647238
0	C	0.104757	0.665172	0.16248
0	C	0.607742	0.87194	0.373335
0	C	0.565765	0.190009	0.880973
0	H	0.0907831	0.254773	0.648271
0	H	0.0716879	0.726309	0.165468
0	H	0.573826	0.811298	0.373549
0	H	0.594032	0.254071	0.877437
0	H	0.0540018	0.335722	0.697194
0	H	0.11322	0.645654	0.211904
0	H	0.610916	0.89007	0.32322
0	H	0.556169	0.170079	0.831726
0	C	0.732461	0.330635	0.178438
0	C	0.442713	0.7016	0.680451
0	C	0.951502	0.813834	0.850833
0	C	0.224379	0.18685	0.347517
0	H	0.759426	0.266988	0.178106
0	H	0.407626	0.759957	0.678671
0	H	0.916208	0.755603	0.851327
0	H	0.252403	0.24989	0.347797
0	C	0.823302	0.37304	0.262871
0	C	0.361057	0.649983	0.768375
0	C	0.872179	0.869545	0.762095
0	C	0.312812	0.143064	0.261869
0	C	0.87664	0.579055	0.369191
0	C	0.33305	0.441791	0.879984
0	C	0.855514	0.0874169	0.653103
0	C	0.359146	0.930711	0.157385
0	H	0.841919	0.591129	0.411356
0	H	0.36915	0.430988	0.921455
0	H	0.894435	0.0951586	0.613024
0	H	0.325509	0.913942	0.115579
0	H	0.876724	0.508828	0.358634
0	H	0.328044	0.512158	0.87091
0	H	0.845609	0.0176712	0.661949
0	H	0.35534	0.00154662	0.165306
0	C	0.720137	0.620456	0.533249
0	C	0.485302	0.443848	0.0298319
0	C	0.994746	0.0746601	0.506505
0	C	0.210988	0.921616	0.015316
0	H	0.727582	0.68512	0.552887
0	H	0.487057	0.374074	0.0390049
0	H	0.995355	0.145543	0.506201
0	H	0.217983	0.851672	0.0127299
0	C	0.20064	0.52684	0.529317
0	C	0.000216787	0.450462	0.0344472
0	C	0.517015	0.0943747	0.505443
0	C	0.68993	0.977312	0.00401204
0	H	0.22518	0.460224	0.522401
0	H	0.970929	0.514792	0.0280117
0	H	0.482693	0.0340213	0.514666
0	H	0.720105	0.0406281	0.0118767
0	C	0.725406	0.477237	0.219898
0	C	0.469288	0.559957	0.725544
0	C	0.980932	0.9558	0.807512
0	C	0.214004	0.0405253	0.306102
0	C	0.767152	0.474169	0.516695
0	C	0.418687	0.58204	0.035736
0	C	0.934648	0.938544	0.476672
0	C	0.259149	0.066863	0.995295
0	H	0.813096	0.426227	0.522296
0	H	0.367014	0.61837	0.0486167
0	H	0.886429	0.904661	0.454818
0	H	0.304853	0.108821	0.977219
0	C	0.778891	0.559025	0.537653
0	C	0.420509	0.492392	0.0456476
0	C	0.934435	0.0291766	0.478696
0	C	0.267931	0.976876	0.992403
0	C	0.640156	0.51415	0.482183
0	C	0.546211	0.575145	0.992792
0	C	0.0549715	0.937877	0.532116
0	C	0.136184	0.0469547	0.0450274
0	H	0.586457	0.496906	0.459658
0	H	0.59532	0.607285	0.971685
0	H	0.101924	0.902289	0.553601
0	H	0.0845578	0.0743998	0.0660595
0	C	0.633148	0.42771	0.143163
0	C	0.552365	0.619483	0.645567
0	C	0.0607957	0.894149	0.888836
0	C	0.125049	0.0912828	0.384857
0	H	0.582328	0.43973	0.114913
0	H	0.6034	0.613962	0.616454
0	H	0.110579	0.898477	0.919497
0	H	0.075259	0.0801147	0.414499
0	C	0.0531557	0.511874	0.669169
0	C	0.1378	0.477084	0.178507
0	C	0.641981	0.06159	0.355266
0	C	0.549735	0.000518726	0.860239
0	H	0.0856445	0.495227	0.711434
0	H	0.106697	0.498558	0.220314
0	H	0.602313	0.0507937	0.316236
0	H	0.581643	0.022405	0.818863
0	H	0.994877	0.486497	0.675824
0	H	0.197158	0.499681	0.183486
0	H	0.696484	0.0306287	0.342813
0	H	0.490067	0.021596	0.854026
0	H	0.0466785	0.582883	0.668724
0	H	0.14035	0.405862	0.181021
0	H	0.653481	0.131751	0.356257
0	H	0.548434	0.929267	0.857713
0	C	0.389741	0.632683	0.519549
0	C	0.819512	0.328581	0.0198949
0	C	0.348342	0.236917	0.521513
0	C	0.866087	0.845824	0.0171722
0	H	0.441563	0.611767	0.54487
0	H	0.7695	0.346662	0.0485955
0	H	0.301143	0.226165	0.488242
0	H	0.888406	0.823625	0.0625705
0	H	0.365381	0.68806	0.54542
0	H	0.848114	0.273686	0.0432431
0	H	0.383166	0.290719	0.502911
0	H	0.915827	0.858246	0.986665
0	H	0.407624	0.657135	0.473433
0	H	0.797762	0.30505	0.974599
0	H	0.322887	0.259167	0.56588
0	H	0.83375	0.791673	0.996403
0	C	0.853309	0.634445	0.312892
0	C	0.359247	0.390703	0.822387
0	C	0.881655	0.135664	0.711948
0	C	0.338433	0.877649	0.21547
0	H	0.903975	0.671368	0.296165
0	H	0.31153	0.348617	0.806114
0	H	0.834856	0.179405	0.727524
0	H	0.390356	0.842643	0.231942
0	H	0.810632	0.683628	0.326708
0	H	0.406906	0.346858	0.834518
0	H	0.930942	0.177889	0.701347
0	H	0.295992	0.827013	0.203909
0	C	0.697561	0.452109	0.48914
0	C	0.481853	0.623428	0.00946968
0	C	0.995149	0.892901	0.503562
0	C	0.193242	0.10149	0.0220087
0	H	0.688231	0.385605	0.472674
0	H	0.480654	0.693691	0.0018193
0	H	0.994968	0.821866	0.5031
0	H	0.187177	0.172221	0.0257121
0	C	0.66147	0.492867	0.181794
0	C	0.533803	0.552914	0.686821
0	C	0.0442886	0.961525	0.847666
0	C	0.151104	0.0257595	0.345538
0	H	0.633675	0.555893	0.183241
0	H	0.569711	0.495475	0.68983
0	H	0.0810588	0.0184214	0.845726
0	H	0.122473	0.963229	0.344749
0	O	0.344803	0.486618	0.495233
0	O	0.858507	0.474365	0.988841
0	O	0.374818	0.0881887	0.554191
0	O	0.83564	0.994979	0.0461901
0	C	0.334921	0.559997	0.513324
0	C	0.870758	0.403969	0.0113408
0	C	0.392922	0.156278	0.530662
0	C	0.819137	0.925187	0.0245775
0	C	0.651421	0.598412	0.50434
0	C	0.548004	0.485672	0.00305932
0	C	0.0549454	0.028479	0.533385
0	C	0.145	0.957047	0.0415731
0	H	0.606867	0.647081	0.499217
0	H	0.59874	0.448752	0.990556
0	H	0.102225	0.0628949	0.55519
0	H	0.10052	0.914712	0.0596517
0	C	0.973527	0.19285	0.179257
0	C	0.176324	0.836039	0.718751
0	C	0.678384	0.683864	0.798096
0	C	0.451967	0.327525	0.346509
0	H	0.992128	0.25089	0.154377
0	H	0.141764	0.790276	0.691927
0	H	0.640846	0.729654	0.822134
0	H	0.465342	0.270582	0.3748
0	C	0.97537	0.112584	0.14925
0	C	0.171032	0.924656	0.706143
0	C	0.671172	0.59528	0.809968
0	C	0.451848	0.409222	0.374531
0	H	0.995178	0.107871	0.100872
0	H	0.132877	0.947092	0.669353
0	H	0.628559	0.573017	0.843354
0	H	0.462105	0.415302	0.424704
0	C	0.951946	0.0379997	0.18088
0	C	0.214094	0.983986	0.740691
0	C	0.718186	0.53594	0.779114
0	C	0.437578	0.483099	0.338705
0	H	0.951509	0.976044	0.156935
0	H	0.209665	0.0529922	0.731047
0	H	0.712879	0.467083	0.788564
0	H	0.43764	0.546447	0.360603
0	C	0.926152	0.123659	0.273399
0	C	0.269312	0.865933	0.79984
0	C	0.77966	0.653852	0.724084
0	C	0.421647	0.393594	0.246612
0	H	0.906901	0.127326	0.322056
0	H	0.309113	0.843363	0.835864
0	H	0.82231	0.676014	0.690146
0	H	0.408883	0.388246	0.196598
0	C	0.928154	0.0435847	0.243183
0	C	0.263499	0.954352	0.787433
0	C	0.772501	0.565425	0.736141
0	C	0.423107	0.475245	0.274616
0	H	0.910978	0.985688	0.268494
0	H	0.297702	0.999803	0.814545
0	H	0.809505	0.519862	0.711697
0	H	0.412591	0.532635	0.246305
