#******************************************
#
# CIF file created by Zeo++
# Zeo++ is an open source package to
# analyze microporous materials
#
#*******************************************

_cell_length_a		16.6802(0)
_cell_length_b		17.0086(0)
_cell_length_c		10.1307(0)
_cell_angle_alpha		90(0)
_cell_angle_beta		90(0)
_cell_angle_gamma		122.135(0)

_symmetry_space_group_name_H-M		'P1'
_symmetry_Int_Tables_number		1
_symmetry_cell_setting		Monoclinic

loop_
_symmetry_equiv_pos_as_xyz
'+x,+y,+z'

loop_
_atom_site_label
_atom_site_type_symbol
_atom_site_fract_x
_atom_site_fract_y
_atom_site_fract_z
0	C	0.572155	0.273394	0.353945
0	C	0.793449	0.276547	0.684185
0	C	0.824319	0.516587	0.0211338
0	C	0.509596	0.762887	0.8466
0	C	0.294612	0.773352	0.168924
0	C	0.269881	0.537609	0.509459
0	H	0.609433	0.31503	0.261695
0	H	0.744689	0.235828	0.598763
0	H	0.829945	0.485656	0.924872
0	H	0.500949	0.716194	0.761073
0	H	0.339508	0.809607	0.0786659
0	H	0.266605	0.571531	0.414598
0	N	0.574933	0.18556	0.351769
0	N	0.857757	0.376808	0.639081
0	N	0.726601	0.502944	0.0288124
0	N	0.469386	0.821007	0.804849
0	N	0.230097	0.670637	0.136613
0	N	0.366647	0.549515	0.518413
0	H	0.5274	0.135168	0.419006
0	H	0.894108	0.421035	0.71943
0	H	0.685681	0.45337	0.099641
0	H	0.47348	0.864067	0.881709
0	H	0.191814	0.631676	0.220117
0	H	0.411366	0.605465	0.578628
0	H	0.641802	0.200417	0.379865
0	H	0.816795	0.399273	0.595143
0	H	0.687912	0.478986	0.937429
0	H	0.3985	0.77712	0.777205
0	H	0.270988	0.644648	0.103416
0	H	0.401319	0.562677	0.423916
0	H	0.558786	0.152409	0.256003
0	H	0.910642	0.386579	0.570458
0	H	0.727882	0.569075	0.0569545
0	H	0.507409	0.867513	0.722956
0	H	0.178906	0.657332	0.0628874
0	H	0.364602	0.485351	0.559024
0	C	0.470325	0.248024	0.356958
0	C	0.851154	0.235722	0.725251
0	C	0.900354	0.618895	0.0294338
0	C	0.612859	0.826265	0.884196
0	C	0.237049	0.814822	0.208017
0	C	0.193529	0.435161	0.51132
0	H	0.427839	0.199064	0.275838
0	H	0.904281	0.246936	0.648465
0	H	0.89115	0.661101	0.955009
0	H	0.657689	0.869084	0.800024
0	H	0.18674	0.806475	0.128381
0	H	0.201396	0.39725	0.429499
0	H	0.464698	0.308887	0.340218
0	H	0.804193	0.158978	0.737528
0	H	0.972039	0.631049	0.0111572
0	H	0.644108	0.787155	0.919208
0	H	0.2841	0.890653	0.225985
0	H	0.121566	0.423614	0.500038
0	H	0.433895	0.21555	0.45053
0	H	0.889975	0.264741	0.817825
0	H	0.902202	0.648319	0.126988
0	H	0.62342	0.87574	0.96291
0	H	0.195014	0.783577	0.297747
0	H	0.193235	0.40158	0.604269
0	C	0.632465	0.331092	0.473577
0	C	0.734946	0.276484	0.802763
0	C	0.832259	0.461068	0.135706
0	C	0.449212	0.703294	0.96515
0	C	0.358715	0.779429	0.283602
0	C	0.260408	0.591736	0.624357
0	O	0.694235	0.317237	0.514068
0	O	0.757791	0.350451	0.857255
0	O	0.761002	0.411778	0.205006
0	O	0.385844	0.714815	0.00509824
0	O	0.340473	0.707247	0.339826
0	O	0.332547	0.645985	0.689512
0	N	0.61898	0.396553	0.527063
0	N	0.659562	0.192723	0.843908
0	N	0.91719	0.46994	0.162577
0	N	0.467095	0.641045	0.0195452
0	N	0.433368	0.865081	0.318498
0	N	0.17361	0.577506	0.654353
0	H	0.563196	0.404175	0.500056
0	H	0.638537	0.128788	0.800718
0	H	0.977958	0.509279	0.104121
0	H	0.521785	0.632786	0.989911
0	H	0.449928	0.929458	0.275223
0	H	0.112004	0.535193	0.597113
0	C	0.660332	0.440501	0.656953
0	C	0.611699	0.185122	0.971157
0	C	0.922761	0.416118	0.273279
0	C	0.425157	0.5946	0.14794
0	C	0.490269	0.873713	0.435497
0	C	0.167193	0.632414	0.762669
0	H	0.683589	0.398949	0.712633
0	H	0.665261	0.237894	0.0429311
0	H	0.861499	0.396064	0.341886
0	H	0.406067	0.638015	0.207822
0	H	0.448354	0.809408	0.49784
0	H	0.228582	0.654047	0.831766
0	C	0.578237	0.439796	0.735266
0	C	0.572731	0.0841274	0.0292116
0	C	0.016551	0.477316	0.353501
0	C	0.503796	0.58711	0.222668
0	C	0.509481	0.959639	0.518903
0	C	0.0739653	0.571613	0.844575
0	O	0.507011	0.420079	0.669517
0	O	0.573229	0.0267132	0.954859
0	O	0.0872948	0.540064	0.295995
0	O	0.572445	0.601383	0.155521
0	O	0.510959	0.0250604	0.462156
0	O	0.00182611	0.510582	0.787726
0	O	0.592325	0.457343	0.855709
0	O	0.546275	0.0724519	0.147266
0	O	0.0138434	0.455232	0.473407
0	O	0.489682	0.568664	0.343222
0	O	0.523611	0.955988	0.640026
0	O	0.0787403	0.592248	0.965248
0	C	0.741739	0.540654	0.643829
0	C	0.534012	0.200738	0.959879
0	C	0.918936	0.327164	0.231209
0	C	0.339715	0.496893	0.131647
0	C	0.586345	0.885997	0.402862
0	C	0.17012	0.720089	0.71582
0	H	0.721325	0.590199	0.67057
0	H	0.464618	0.109411	0.668258
0	H	0.981605	0.328761	0.273279
0	H	0.354996	0.442989	0.155164
0	H	0.642426	0.946308	0.460317
0	H	0.106268	0.718232	0.753215
0	C	0.842953	0.56666	0.665348
0	C	0.470256	0.219506	0.024781
0	C	0.781427	0.204263	0.377189
0	C	0.241251	0.477725	0.156137
0	C	0.567415	0.743144	0.524623
0	C	0.303311	0.846609	0.864432
0	H	0.933994	0.881089	0.658923
0	H	0.202624	0.0702267	0.034881
0	H	0.983487	0.134635	0.373212
0	H	0.143486	0.159121	0.203207
0	H	0.915068	0.982603	0.533315
0	H	0.116317	0.921848	0.838837
0	H	0.745226	0.652186	0.0656538
0	H	0.433975	0.00520311	0.269772
0	H	0.971461	0.271909	0.54076
0	H	0.348918	0.402519	0.568524
0	H	0.664491	0.0450285	0.730479
0	H	0.118022	0.775562	0.0194284
0	H	0.899875	0.759898	0.922218
0	H	0.319165	0.0914494	0.272559
0	H	0.0178883	0.176927	0.642603
0	H	0.206904	0.268314	0.453296
0	H	0.762311	0.946685	0.750248
0	H	0.078589	0.87409	0.150813
0	C	0.835619	0.578925	0.400934
0	C	0.431381	0.207001	0.755538
0	C	0.819981	0.1987	0.129127
0	C	0.24312	0.462602	0.891238
0	C	0.636941	0.811954	0.291924
0	C	0.273286	0.845776	0.611774
0	H	0.821623	0.509887	0.361143
0	H	0.482462	0.271587	0.700684
0	H	0.751868	0.175283	0.081383
0	H	0.232779	0.519687	0.855318
0	H	0.601118	0.749975	0.229522
0	H	0.341794	0.864334	0.569715
0	H	0.912779	0.627614	0.378449
0	H	0.366845	0.21194	0.767729
0	H	0.834105	0.142646	0.122565
0	H	0.171401	0.398964	0.871555
0	H	0.713181	0.836102	0.297502
0	H	0.263603	0.904222	0.597214
0	C	0.818683	0.568698	0.542387
0	C	0.469957	0.208312	0.885285
0	C	0.828888	0.235186	0.268679
0	C	0.262959	0.47448	0.0321684
0	C	0.593043	0.800754	0.427616
0	C	0.259572	0.812691	0.754092
0	C	0.77694	0.782564	0.667643
0	C	0.286854	0.00777567	0.957033
0	C	0.0664717	0.251807	0.231104
0	C	0.296564	0.236628	0.146756
0	C	0.81645	0.029571	0.459422
0	C	0.0286651	0.804751	0.69896
0	H	0.857746	0.857722	0.338376
0	H	0.344583	0.0589764	0.715807
0	H	0.963848	0.296047	0.0413217
0	H	0.226522	0.193367	0.809276
0	H	0.678261	0.954545	0.224141
0	H	0.130259	0.750359	0.520533
0	H	0.70409	0.737313	0.670827
0	H	0.328194	0.987597	0.0157282
0	H	0.105629	0.30569	0.165538
0	H	0.367581	0.271334	0.118514
0	H	0.777877	0.0506642	0.522562
0	H	0.987103	0.750089	0.635251
0	H	0.676884	0.649737	0.459557
0	H	0.460151	0.982248	0.821521
0	H	0.0729014	0.469462	0.0738239
0	H	0.42965	0.394372	0.992753
0	H	0.649558	0.0852083	0.323296
0	H	0.00768483	0.574453	0.557052
0	C	0.779603	0.60028	0.316822
0	C	0.406203	0.121783	0.673212
0	C	0.903177	0.295058	0.0848235
0	C	0.311243	0.462648	0.802275
0	C	0.616876	0.888335	0.257279
0	C	0.188854	0.749979	0.568528
0	H	0.642412	0.662755	0.43265
0	H	0.423052	0.990854	0.791908
0	H	0.0781598	0.431992	0.0401884
0	H	0.431113	0.388568	0.917923
0	H	0.666161	0.0518494	0.305967
0	H	0.998605	0.607482	0.517586
0	H	0.723219	0.605389	0.361465
0	H	0.388163	0.129169	0.571477
0	H	0.882452	0.332191	0.0182747
0	H	0.375518	0.472186	0.844026
0	H	0.560523	0.867436	0.184156
0	H	0.208804	0.710564	0.505175
0	H	0.815097	0.858733	0.312564
0	H	0.293573	0.996881	0.850599
0	H	0.195528	0.473126	0.231245
0	H	0.273967	0.204152	0.780915
0	H	0.800717	0.0322631	0.355031
0	H	0.891601	0.574034	0.737887
0	C	0.86137	0.835392	0.663066
0	C	0.239997	0.0417003	0.00125936
0	C	0.0216961	0.188818	0.307104
0	C	0.214283	0.194962	0.177312
0	C	0.871115	0.00337012	0.500428
0	C	0.0759803	0.867884	0.773691
0	H	0.690619	0.621362	0.0774841
0	H	0.381538	0.981554	0.247844
0	H	0.00954048	0.319358	0.512087
0	H	0.401655	0.433438	0.591096
0	H	0.715299	0.0588162	0.712479
0	H	0.0780641	0.726683	0.997498
0	H	0.893483	0.801276	0.924342
0	H	0.26993	0.0481812	0.284658
0	H	0.00177378	0.128489	0.668516
0	H	0.180222	0.216922	0.471909
0	H	0.815762	0.982298	0.752429
0	H	0.0820553	0.919612	0.134207
