#******************************************
#
# CIF file created by Zeo++
# Zeo++ is an open source package to
# analyze microporous materials
#
#*******************************************

_cell_length_a		24.6377(0)
_cell_length_b		24.6401(0)
_cell_length_c		10.8685(0)
_cell_angle_alpha		90(0)
_cell_angle_beta		90(0)
_cell_angle_gamma		119.981(0)

_symmetry_space_group_name_H-M		'P1'
_symmetry_Int_Tables_number		1
_symmetry_cell_setting		Monoclinic

loop_
_symmetry_equiv_pos_as_xyz
'+x,+y,+z'

loop_
_atom_site_label
_atom_site_type_symbol
_atom_site_fract_x
_atom_site_fract_y
_atom_site_fract_z
0	N	0.519491	0.343331	0.274389
0	N	0.655101	0.175846	0.249548
0	N	0.821583	0.478183	0.261562
0	N	0.445991	0.351591	0.50383
0	N	0.648353	0.0999528	0.490288
0	N	0.900253	0.549816	0.497076
0	N	0.438718	0.193266	0.982317
0	N	0.803832	0.244416	0.977605
0	N	0.753123	0.559372	0.981542
0	N	0.60587	0.495783	0.985534
0	N	0.501928	0.108929	0.978317
0	N	0.887492	0.391651	0.981066
0	C	0.602059	0.317747	0.262165
0	C	0.679456	0.283891	0.25799
0	C	0.713328	0.395138	0.260469
0	C	0.616789	0.269507	0.25937
0	C	0.727686	0.346842	0.25764
0	C	0.650361	0.380399	0.262398
0	H	0.57956	0.22044	0.260148
0	H	0.776771	0.358647	0.257047
0	H	0.638529	0.417634	0.266081
0	C	0.535165	0.300439	0.270523
0	C	0.696684	0.234235	0.26559
0	C	0.762946	0.461998	0.268651
0	H	0.502191	0.249386	0.274132
0	H	0.74652	0.252024	0.288382
0	H	0.744878	0.494565	0.282874
0	C	0.489698	0.367262	0.707819
0	C	0.631653	0.124022	0.69743
0	C	0.874094	0.507636	0.702842
0	C	0.457792	0.303298	0.736721
0	C	0.695498	0.155923	0.727457
0	C	0.842276	0.539704	0.73264
0	H	0.426325	0.269569	0.6685
0	H	0.729599	0.158966	0.659274
0	H	0.83971	0.571096	0.664634
0	C	0.466954	0.282863	0.851489
0	C	0.715373	0.18432	0.84341
0	C	0.813354	0.530832	0.848109
0	C	0.507375	0.326745	0.937682
0	C	0.671003	0.179968	0.929309
0	C	0.817141	0.49043	0.933884
0	H	0.515295	0.310313	0.0258048
0	H	0.686995	0.203301	0.0185235
0	H	0.793361	0.482798	0.0226429
0	C	0.537908	0.391094	0.910451
0	C	0.606754	0.146546	0.900913
0	C	0.850563	0.459576	0.905705
0	C	0.528983	0.41125	0.795595
0	C	0.587209	0.118599	0.785014
0	C	0.879033	0.468295	0.790265
0	H	0.553349	0.46137	0.774936
0	H	0.537186	0.0931059	0.763486
0	H	0.904519	0.443719	0.76891
0	C	0.486522	0.389487	0.582798
0	C	0.609592	0.0985	0.572354
0	C	0.899536	0.510865	0.577806
0	H	0.522217	0.438813	0.564907
0	H	0.559045	0.0804373	0.557481
0	H	0.915316	0.476638	0.561569
0	C	0.435868	0.214576	0.87506
0	C	0.783497	0.221135	0.869359
0	C	0.776471	0.562134	0.873439
0	H	0.411929	0.185381	0.793595
0	H	0.813394	0.226905	0.788814
0	H	0.770696	0.586077	0.792569
0	C	0.58148	0.436095	0.00280627
0	C	0.561724	0.144509	0.993955
0	C	0.852123	0.41602	0.997952
0	H	0.590598	0.413752	0.0824945
0	H	0.584325	0.175965	0.0736707
0	H	0.82062	0.406903	0.0776357
0	C	0.452842	0.324928	0.288328
0	C	0.672954	0.127553	0.270679
0	C	0.869822	0.544594	0.279233
0	H	0.423312	0.276203	0.32601
0	H	0.721959	0.14719	0.306924
0	H	0.850356	0.574051	0.315917
0	C	0.448071	0.372741	0.376049
0	C	0.625731	0.0781409	0.364139
0	C	0.920744	0.54811	0.370211
0	H	0.488197	0.420933	0.357498
0	H	0.577726	0.0707266	0.346151
0	H	0.928392	0.507646	0.352414
0	C	0.385878	0.369469	0.339414
0	C	0.626946	0.0173625	0.334282
0	C	0.980738	0.610056	0.336766
0	H	0.389317	0.415621	0.34932
0	H	0.580189	0.975759	0.346735
0	H	0.0227982	0.605571	0.348073
0	H	0.347428	0.337081	0.400827
0	H	0.658706	0.0114867	0.397851
0	H	0.986856	0.648213	0.39909
0	C	0.372505	0.345933	0.205376
0	C	0.650032	0.0236728	0.20042
0	C	0.972598	0.625098	0.202674
0	H	0.325685	0.303711	0.197816
0	H	0.692201	0.0187983	0.196016
0	H	0.977445	0.672078	0.196514
0	H	0.371915	0.381204	0.143496
0	H	0.614541	0.986156	0.141533
0	H	0.00927765	0.626268	0.142415
0	C	0.423905	0.331222	0.166829
0	C	0.664852	0.0886301	0.153774
0	C	0.907023	0.57442	0.160036
0	H	0.405289	0.28829	0.110772
0	H	0.707192	0.110918	0.0956947
0	H	0.883784	0.593818	0.10287
0	H	0.459635	0.369638	0.109628
0	H	0.626041	0.0847998	0.0961753
0	H	0.910221	0.539002	0.102708
0	C	0.41098	0.124952	0.998184
0	C	0.871954	0.284764	0.996543
0	C	0.712677	0.587115	0.999692
0	H	0.398326	0.0986099	0.908956
0	H	0.899212	0.299484	0.90841
0	H	0.697748	0.599127	0.911186
0	C	0.35292	0.0974438	0.082867
0	C	0.898773	0.253459	0.0810628
0	C	0.744015	0.645672	0.0829828
0	H	0.30962	0.0823214	0.0296434
0	H	0.913962	0.225412	0.0276193
0	H	0.771818	0.688613	0.0286121
0	H	0.355869	0.133212	0.148254
0	H	0.862595	0.220454	0.14558
0	H	0.777272	0.642967	0.147565
0	C	0.352359	0.042358	0.150995
0	C	0.953666	0.30744	0.150689
0	C	0.690105	0.646772	0.152557
0	H	0.3142	0.997088	0.116512
0	H	0.999047	0.314759	0.116395
0	H	0.682602	0.684612	0.117624
0	H	0.342742	0.0436556	0.249925
0	H	0.951983	0.295826	0.249366
0	H	0.701919	0.657129	0.251075
0	C	0.416657	0.0474237	0.13057
0	C	0.948666	0.3668	0.131887
0	C	0.630795	0.582297	0.13487
0	H	0.4121	0.009096	0.0706387
0	H	0.987142	0.400932	0.0727054
0	H	0.596524	0.586301	0.0754285
0	H	0.437494	0.0435936	0.21732
0	H	0.952271	0.39095	0.219198
0	H	0.606821	0.562153	0.222516
0	C	0.458569	0.111727	0.0686486
0	C	0.884519	0.344745	0.0694778
0	C	0.652863	0.539997	0.0733768
0	H	0.482774	0.148416	0.14115
0	H	0.847497	0.331369	0.141584
0	H	0.666376	0.51665	0.145881
0	N	0.172663	0.0707848	0.471705
0	N	0.926636	0.101146	0.471953
0	N	0.896276	0.824785	0.471396
0	N	0.258997	0.108222	0.706959
0	N	0.889174	0.149853	0.707433
0	N	0.847726	0.738699	0.706958
0	N	0.151581	0.935817	0.196697
0	N	0.0612997	0.213994	0.197403
0	N	0.783285	0.84622	0.19694
0	N	0.0219243	0.809815	0.195967
0	N	0.187434	0.210467	0.196434
0	N	0.786543	0.975652	0.196341
0	C	0.0632867	0.0414943	0.478147
0	C	0.95584	0.0209823	0.478238
0	C	0.976409	0.934099	0.478117
0	C	0.041163	0.976909	0.477941
0	C	0.0204443	0.063429	0.478122
0	C	0.933938	0.956246	0.478068
0	H	0.0747715	0.96019	0.479337
0	H	0.0371341	0.113727	0.479711
0	H	0.883642	0.922598	0.479587
0	C	0.131225	0.0880575	0.48423
0	C	0.909314	0.0424303	0.484358
0	C	0.954973	0.866153	0.484214
0	H	0.141807	0.13664	0.501335
0	H	0.860721	0.00445253	0.501377
0	H	0.992918	0.855513	0.501612
0	C	0.21142	0.0753032	0.907966
0	C	0.921923	0.135074	0.908525
0	C	0.862604	0.78626	0.90805
0	C	0.214687	0.132253	0.937465
0	C	0.864948	0.081393	0.937744
0	C	0.916217	0.782832	0.937418
0	H	0.231816	0.169554	0.868625
0	H	0.827734	0.0613213	0.868741
0	H	0.936262	0.765622	0.868483
0	C	0.195608	0.140614	0.0542916
0	C	0.856415	0.0538011	0.0544556
0	C	0.943767	0.801825	0.0542236
0	C	0.174382	0.092321	0.141339
0	C	0.904638	0.0807472	0.141688
0	C	0.916795	0.823138	0.141362
0	H	0.159319	0.0991678	0.232038
0	H	0.897744	0.0587932	0.232311
0	H	0.938682	0.83813	0.23207
0	C	0.171794	0.0354813	0.112643
0	C	0.961532	0.134969	0.11327
0	C	0.862612	0.825881	0.112764
0	C	0.190161	0.0269722	0.995751
0	C	0.970169	0.162004	0.996515
0	C	0.83566	0.80761	0.995948
0	H	0.187497	0.982414	0.973888
0	H	0.0147466	0.203887	0.974904
0	H	0.7938	0.810358	0.974183
0	C	0.227071	0.0629189	0.783253
0	C	0.934413	0.163272	0.783957
0	C	0.834405	0.770588	0.783503
0	H	0.208139	0.0126051	0.763425
0	H	0.984734	0.194811	0.764384
0	H	0.802904	0.789438	0.763952
0	C	0.146307	0.985352	0.206951
0	C	0.0115804	0.159374	0.207718
0	C	0.838047	0.851383	0.207204
0	H	0.122572	0.994747	0.283999
0	H	0.0019827	0.126263	0.284883
0	H	0.871158	0.875013	0.284297
0	C	0.00355639	0.803533	0.0827349
0	C	0.19367	0.198547	0.0830503
0	C	0.798427	0.993959	0.0830335
0	H	0.0292382	0.801212	0.00164605
0	H	0.195775	0.226541	0.00214298
0	H	0.770347	0.968228	0.00211368
0	C	0.239701	0.117875	0.486112
0	C	0.879613	0.121204	0.486444
0	C	0.876184	0.757713	0.48589
0	H	0.247943	0.164826	0.517171
0	H	0.832627	0.0825175	0.517313
0	H	0.914853	0.74932	0.516562
0	C	0.269856	0.0929936	0.581229
0	C	0.904523	0.176106	0.581847
0	C	0.821362	0.727848	0.581473
0	H	0.250701	0.0416395	0.565559
0	H	0.955906	0.208227	0.566318
0	H	0.789336	0.74726	0.566189
0	C	0.340311	0.129352	0.548103
0	C	0.868342	0.210412	0.548888
0	C	0.786834	0.657378	0.548557
0	H	0.363504	0.102602	0.573195
0	H	0.8951	0.26027	0.574515
0	H	0.736953	0.634515	0.574062
0	H	0.364508	0.174111	0.599526
0	H	0.823433	0.189788	0.599878
0	H	0.807261	0.632941	0.599677
0	C	0.343252	0.141878	0.408619
0	C	0.856153	0.201231	0.409278
0	C	0.796046	0.654288	0.408977
0	H	0.358783	0.113102	0.357891
0	H	0.885353	0.245566	0.358907
0	H	0.751684	0.639088	0.358623
0	H	0.377786	0.191441	0.388162
0	H	0.806766	0.186701	0.388468
0	H	0.810649	0.619456	0.388286
0	C	0.277123	0.125894	0.366803
0	C	0.871676	0.150778	0.367296
0	C	0.846438	0.72023	0.366827
0	H	0.254966	0.0822813	0.311717
0	H	0.915185	0.171958	0.311903
0	H	0.825177	0.742585	0.311724
0	H	0.278009	0.16272	0.307596
0	H	0.834626	0.114987	0.308272
0	H	0.882138	0.718952	0.307499
0	C	0.121009	0.88652	0.291144
0	C	0.110526	0.232508	0.291957
0	C	0.76461	0.87674	0.291601
0	H	0.0870776	0.892951	0.349764
0	H	0.104062	0.192028	0.350217
0	H	0.805048	0.910743	0.349967
0	C	0.084909	0.820833	0.227101
0	C	0.176235	0.262258	0.22795
0	C	0.734751	0.912691	0.227883
0	H	0.112315	0.819746	0.146028
0	H	0.177249	0.290828	0.147078
0	H	0.706063	0.885158	0.147115
0	C	0.0816469	0.774276	0.326351
0	C	0.222755	0.305422	0.32735
0	C	0.691728	0.916025	0.327696
0	H	0.034838	0.749652	0.369887
0	H	0.247466	0.283233	0.370597
0	H	0.714115	0.962806	0.371347
0	H	0.0891777	0.73773	0.284533
0	H	0.259235	0.349561	0.285679
0	H	0.647615	0.908653	0.286364
0	C	0.132785	0.8129	0.422098
0	C	0.184061	0.3177	0.423339
0	C	0.67934	0.864794	0.423142
0	H	0.165081	0.794456	0.434099
0	H	0.202429	0.368388	0.435743
0	H	0.628636	0.832428	0.435099
0	H	0.111672	0.809916	0.513211
0	H	0.187057	0.299399	0.514246
0	H	0.697447	0.885805	0.514318
0	C	0.168288	0.881022	0.375838
0	C	0.115943	0.285115	0.37703
0	C	0.712055	0.829416	0.376562
0	H	0.184034	0.91527	0.451381
0	H	0.0816622	0.266489	0.452495
0	H	0.730771	0.813779	0.451939
0	H	0.21087	0.890256	0.324374
0	H	0.106684	0.318507	0.325769
0	H	0.678726	0.786778	0.325239
0	N	0.318166	0.506742	0.710452
0	N	0.49051	0.809242	0.710487
0	N	0.188088	0.679093	0.710304
0	N	0.30539	0.427098	0.947133
0	N	0.570481	0.876566	0.946729
0	N	0.120942	0.691826	0.946675
0	N	0.163575	0.453041	0.427531
0	N	0.544639	0.708733	0.427338
0	N	0.288836	0.833666	0.427172
0	N	0.463298	0.561204	0.430458
0	N	0.436427	0.900227	0.430414
0	N	0.0970979	0.534127	0.430519
0	C	0.345338	0.615642	0.713215
0	C	0.381624	0.727372	0.713208
0	C	0.269882	0.651955	0.713153
0	C	0.283147	0.602707	0.712831
0	C	0.394582	0.678131	0.712879
0	C	0.319121	0.71413	0.712821
0	H	0.245156	0.553981	0.714761
0	H	0.443315	0.688854	0.714845
0	H	0.308377	0.752131	0.714746
0	C	0.361018	0.564972	0.722479
0	C	0.432222	0.793724	0.722414
0	C	0.203533	0.636269	0.72231
0	H	0.410972	0.581873	0.742665
0	H	0.415194	0.826698	0.742451
0	H	0.170524	0.586305	0.742375
0	C	0.289721	0.458167	0.147691
0	C	0.539372	0.829698	0.14722
0	C	0.16764	0.707553	0.147327
0	C	0.353573	0.487733	0.177549
0	C	0.50982	0.863994	0.177243
0	C	0.13328	0.643731	0.17735
0	H	0.386891	0.488738	0.109669
0	H	0.508788	0.896324	0.109418
0	H	0.100902	0.610408	0.109574
0	C	0.374449	0.51621	0.293006
0	C	0.481359	0.856369	0.292731
0	C	0.140903	0.622874	0.292821
0	C	0.331244	0.514285	0.379102
0	C	0.483263	0.815031	0.378708
0	C	0.182276	0.666069	0.378794
0	H	0.347943	0.536725	0.46884
0	H	0.460819	0.809252	0.46845
0	H	0.188055	0.649379	0.468516
0	C	0.267097	0.484144	0.350107
0	C	0.513369	0.780993	0.349563
0	C	0.216334	0.730194	0.349684
0	C	0.246409	0.456049	0.234495
0	C	0.541452	0.788433	0.233909
0	C	0.208912	0.750856	0.23404
0	H	0.196373	0.432735	0.212957
0	H	0.564728	0.761679	0.212267
0	H	0.235681	0.80087	0.212393
0	C	0.267583	0.432153	0.022685
0	C	0.565316	0.833594	0.0220901
0	C	0.163776	0.72964	0.0222356
0	H	0.218902	0.42012	0.00269782
0	H	0.577159	0.796827	0.00183704
0	H	0.200434	0.778301	0.00219104
0	C	0.442673	0.551712	0.318489
0	C	0.445776	0.88901	0.318398
0	C	0.108184	0.554673	0.318485
0	H	0.47197	0.569585	0.234888
0	H	0.427664	0.900238	0.234883
0	H	0.0967684	0.525315	0.234968
0	C	0.223664	0.48517	0.443381
0	C	0.512284	0.736497	0.442792
0	C	0.260803	0.77358	0.442972
0	H	0.247713	0.515253	0.524038
0	H	0.481917	0.730257	0.523085
0	H	0.26676	0.749465	0.523638
0	C	0.335481	0.458046	0.731024
0	C	0.539006	0.87533	0.730823
0	C	0.122035	0.661664	0.73068
0	H	0.383434	0.477066	0.772067
0	H	0.519822	0.9041	0.772017
0	H	0.0931834	0.613722	0.771796
0	C	0.286286	0.406634	0.819036
0	C	0.590745	0.877926	0.818449
0	C	0.119587	0.710824	0.818477
0	H	0.238349	0.397938	0.795749
0	H	0.599681	0.838852	0.795093
0	H	0.158714	0.758791	0.79516
0	C	0.29121	0.34788	0.788782
0	C	0.649224	0.941724	0.787736
0	C	0.0558368	0.705688	0.787942
0	H	0.245953	0.304693	0.801438
0	H	0.692563	0.939829	0.79966
0	H	0.0577508	0.750901	0.800299
0	H	0.324825	0.34452	0.851559
0	H	0.652628	0.978603	0.85082
0	H	0.0189063	0.672115	0.850788
0	C	0.314467	0.355706	0.654719
0	C	0.640911	0.957125	0.653908
0	C	0.0404873	0.682269	0.653954
0	H	0.355732	0.349215	0.648726
0	H	0.646833	0.00464497	0.648297
0	H	0.992832	0.640907	0.648027
0	H	0.27854	0.319693	0.594368
0	H	0.677027	0.957667	0.593134
0	H	0.0402482	0.71807	0.593414
0	C	0.331243	0.421869	0.612083
0	C	0.574871	0.907286	0.611625
0	C	0.090089	0.665721	0.611578
0	H	0.375784	0.445414	0.56047
0	H	0.550888	0.927805	0.559915
0	H	0.0693313	0.621189	0.559986
0	H	0.295035	0.420027	0.549318
0	H	0.577012	0.873015	0.54905
0	H	0.124404	0.701981	0.54885
0	C	0.531028	0.602807	0.452416
0	C	0.394637	0.926142	0.452577
0	C	0.0710912	0.466427	0.452619
0	H	0.559892	0.616952	0.366216
0	H	0.380429	0.94086	0.36646
0	H	0.0563989	0.437542	0.366463
0	C	0.556969	0.573323	0.543827
0	C	0.423939	0.981458	0.544227
0	C	0.0157085	0.440472	0.544104
0	H	0.577154	0.548441	0.494781
0	H	0.448745	0.0265878	0.495423
0	H	0.970616	0.420271	0.495203
0	H	0.518936	0.53825	0.602643
0	H	0.459033	0.978536	0.603091
0	H	0.0186265	0.478466	0.603
0	C	0.606466	0.627775	0.622226
0	C	0.369348	0.976276	0.622536
0	C	0.0207578	0.390983	0.622409
0	H	0.597877	0.616343	0.721154
0	H	0.380738	0.979076	0.721481
0	H	0.0179678	0.39956	0.721374
0	H	0.65396	0.635808	0.603147
0	H	0.361203	0.0156659	0.603574
0	H	0.981309	0.343505	0.603379
0	C	0.122086	0.457306	0.520289
0	C	0.540227	0.662927	0.520124
0	C	0.334552	0.875057	0.520073
0	H	0.147661	0.496551	0.587478
0	H	0.500949	0.649324	0.587247
0	H	0.348237	0.849405	0.587091
0	C	0.0837353	0.395126	0.591277
0	C	0.602353	0.68664	0.591292
0	C	0.310622	0.913261	0.591357
0	H	0.108785	0.394011	0.674217
0	H	0.603405	0.712697	0.674361
0	H	0.284551	0.88814	0.674299
0	H	0.0764642	0.354992	0.533747
0	H	0.64255	0.719536	0.533952
0	H	0.277653	0.920491	0.534071
