#******************************************
#
# CIF file created by Zeo++
# Zeo++ is an open source package to
# analyze microporous materials
#
#*******************************************

_cell_length_a		27.1142(0)
_cell_length_b		14.7611(0)
_cell_length_c		12.5249(0)
_cell_angle_alpha		90(0)
_cell_angle_beta		119.693(0)
_cell_angle_gamma		90(0)

_symmetry_space_group_name_H-M		'P1'
_symmetry_Int_Tables_number		1
_symmetry_cell_setting		Monoclinic

loop_
_symmetry_equiv_pos_as_xyz
'+x,+y,+z'

loop_
_atom_site_label
_atom_site_type_symbol
_atom_site_fract_x
_atom_site_fract_y
_atom_site_fract_z
0	O	0.368831	0.402352	0.202107
0	O	0.641783	0.341171	0.85465
0	O	0.861887	0.872971	0.187319
0	O	0.142452	0.889958	0.878463
0	H	0.348277	0.449532	0.227117
0	H	0.660732	0.38945	0.82842
0	H	0.845369	0.92259	0.218561
0	H	0.158673	0.939461	0.846396
0	O	0.648858	0.270825	0.408668
0	O	0.354089	0.279187	0.64464
0	O	0.148199	0.777121	0.422225
0	O	0.859013	0.773365	0.647687
0	H	0.643025	0.319798	0.347072
0	H	0.361499	0.327762	0.707786
0	H	0.14142	0.826945	0.361133
0	H	0.865749	0.823548	0.708122
0	O	0.446236	0.221518	0.413513
0	O	0.544595	0.185361	0.631249
0	O	0.945675	0.70173	0.408358
0	O	0.0649215	0.712067	0.663383
0	H	0.486512	0.220285	0.483395
0	H	0.528979	0.127386	0.638994
0	H	0.936052	0.638226	0.382683
0	H	0.0745468	0.648763	0.690026
0	C	0.380549	0.325184	0.282947
0	C	0.624236	0.266403	0.770556
0	C	0.873089	0.794173	0.264076
0	C	0.134046	0.809435	0.80603
0	H	0.384492	0.352822	0.370426
0	H	0.622982	0.290113	0.684473
0	H	0.871959	0.816701	0.348208
0	H	0.13518	0.83089	0.721457
0	C	0.331555	0.257044	0.226744
0	C	0.666561	0.188133	0.825868
0	C	0.827134	0.722226	0.197617
0	C	0.182137	0.741546	0.877183
0	H	0.290582	0.29494	0.181902
0	H	0.710173	0.216267	0.867405
0	H	0.785656	0.757491	0.144543
0	H	0.22233	0.780621	0.93081
0	H	0.331978	0.218617	0.303623
0	H	0.661306	0.143284	0.749791
0	H	0.823738	0.681475	0.268194
0	H	0.187836	0.701273	0.809168
0	C	0.33339	0.189998	0.135644
0	C	0.660579	0.132626	0.92175
0	C	0.836021	0.659101	0.111799
0	C	0.174216	0.677394	0.963365
0	H	0.301826	0.135535	0.116241
0	H	0.688496	0.0718047	0.946519
0	H	0.806134	0.601159	0.0861243
0	H	0.206052	0.621979	0.992237
0	H	0.319229	0.224306	0.0459453
0	H	0.676698	0.171993	0.00821355
0	H	0.823811	0.69488	0.0239138
0	H	0.184345	0.713735	0.0496816
0	C	0.392451	0.147194	0.182846
0	C	0.598653	0.103353	0.874416
0	C	0.897201	0.623828	0.167928
0	C	0.114127	0.637102	0.905496
0	H	0.4046	0.11254	0.272411
0	H	0.583911	0.0656661	0.785885
0	H	0.907937	0.586855	0.255574
0	H	0.105438	0.60008	0.819167
0	C	0.437896	0.222329	0.21132
0	C	0.559992	0.188734	0.845501
0	C	0.939277	0.705289	0.203413
0	C	0.0695084	0.71516	0.866486
0	C	0.497461	0.179004	0.2609
0	C	0.497587	0.160084	0.797457
0	C	0.000894426	0.670039	0.259005
0	C	0.00886501	0.675258	0.810007
0	H	0.504536	0.130072	0.334269
0	H	0.485171	0.109662	0.722865
0	H	0.00900143	0.619265	0.331056
0	H	0.00255695	0.624514	0.739171
0	H	0.497919	0.139513	0.186416
0	H	0.494403	0.12483	0.871864
0	H	0.0054917	0.634375	0.186754
0	H	0.00485168	0.638743	0.882433
0	C	0.545969	0.248971	0.311611
0	C	0.455611	0.240246	0.751003
0	C	0.0457067	0.74587	0.315235
0	C	0.962011	0.747812	0.75117
0	H	0.539847	0.295655	0.235198
0	H	0.464075	0.28375	0.83131
0	H	0.0397819	0.7939	0.240688
0	H	0.966613	0.79682	0.824072
0	C	0.54453	0.306739	0.412245
0	C	0.462247	0.298482	0.657141
0	C	0.0383913	0.798811	0.412169
0	C	0.968478	0.801099	0.653317
0	H	0.553534	0.262503	0.492353
0	H	0.444854	0.260497	0.568275
0	H	0.04731	0.753096	0.491322
0	H	0.961697	0.754579	0.576427
0	H	0.578975	0.35771	0.447178
0	H	0.435463	0.359812	0.635143
0	H	0.0699448	0.854002	0.451017
0	H	0.935258	0.853734	0.611788
0	C	0.486839	0.352603	0.365356
0	C	0.523671	0.324739	0.699818
0	C	0.978237	0.835768	0.360255
0	C	0.0275307	0.8431	0.706018
0	H	0.478405	0.40277	0.292358
0	H	0.539945	0.373743	0.777201
0	H	0.968383	0.888302	0.289253
0	H	0.0351323	0.896116	0.775121
0	H	0.486749	0.391842	0.440802
0	H	0.526048	0.360331	0.62431
0	H	0.974206	0.869026	0.435376
0	H	0.0312351	0.877197	0.631017
0	C	0.43879	0.282296	0.31537
0	C	0.562881	0.241914	0.740791
0	C	0.934123	0.759778	0.304566
0	C	0.0738921	0.770584	0.765021
0	C	0.604789	0.202157	0.361466
0	C	0.393561	0.203901	0.692022
0	C	0.106462	0.704927	0.372367
0	C	0.902206	0.703476	0.695744
0	C	0.621225	0.141364	0.473073
0	C	0.377603	0.145373	0.578731
0	C	0.121455	0.644362	0.483363
0	C	0.88679	0.64399	0.583565
0	H	0.667711	0.141878	0.534656
0	H	0.331664	0.14826	0.512899
0	H	0.167641	0.642593	0.546554
0	H	0.840349	0.638622	0.52494
0	H	0.607982	0.0711765	0.446567
0	H	0.388864	0.0742318	0.602521
0	H	0.106944	0.574722	0.456147
0	H	0.904127	0.575676	0.609645
0	H	0.601884	0.164415	0.527774
0	H	0.39877	0.16886	0.527506
0	H	0.101965	0.669867	0.536952
0	H	0.903309	0.672996	0.526045
0	C	0.609672	0.152395	0.259601
0	C	0.382424	0.156351	0.786829
0	C	0.115981	0.657295	0.275238
0	C	0.894493	0.653421	0.79395
0	H	0.597465	0.195758	0.178591
0	H	0.394196	0.199045	0.868095
0	H	0.103262	0.700058	0.193464
0	H	0.906613	0.695937	0.875715
0	H	0.582874	0.0919149	0.228532
0	H	0.405793	0.0924963	0.818595
0	H	0.092223	0.593699	0.24464
0	H	0.91965	0.591283	0.824274
0	H	0.653833	0.131518	0.293211
0	H	0.337057	0.140685	0.746501
0	H	0.161128	0.641319	0.313127
0	H	0.849727	0.635167	0.757082
0	C	0.423168	0.279614	0.0972045
0	C	0.580246	0.248759	0.959667
0	C	0.924569	0.765494	0.0918941
0	C	0.0815803	0.7761	0.975886
0	H	0.384422	0.320291	0.0691654
0	H	0.621926	0.280062	0.986933
0	H	0.884105	0.801994	0.0607543
0	H	0.120253	0.817282	0.00541972
0	H	0.415628	0.237294	0.0183814
0	H	0.584809	0.209999	0.0391556
0	H	0.920451	0.72602	0.0133361
0	H	0.0875426	0.73651	0.0558944
0	H	0.457084	0.327695	0.114098
0	H	0.550804	0.304767	0.943876
0	H	0.957037	0.817602	0.113134
0	H	0.0467756	0.824004	0.952703
0	C	0.389994	0.0756233	0.0918635
0	C	0.594996	0.0385186	0.965294
0	C	0.901793	0.555639	0.0815716
0	C	0.110584	0.56769	0.991869
0	H	0.431081	0.0422754	0.124717
0	H	0.552125	0.0107801	0.92874
0	H	0.944469	0.526395	0.121928
0	H	0.068646	0.535828	0.951221
0	H	0.377445	0.105007	0.00169263
0	H	0.60654	0.0718299	0.0528201
0	H	0.89209	0.586846	0.993882
0	H	0.119157	0.59865	0.0789289
0	H	0.359076	0.0222926	0.0783041
0	H	0.623969	0.980894	0.985842
0	H	0.871881	0.499339	0.0609929
0	H	0.141807	0.513224	0.0139546
0	O	0.316071	0.484218	0.317343
0	O	0.692524	0.456039	0.762816
0	O	0.817728	0.963984	0.31156
0	O	0.185707	0.981523	0.750381
0	H	0.30436	0.428754	0.348002
0	H	0.707458	0.408097	0.72768
0	H	0.806672	0.911779	0.348378
0	H	0.196434	0.926791	0.716649
0	O	0.201416	0.906096	0.131745
0	O	0.803965	0.890795	0.935282
0	O	0.695412	0.3807	0.100726
0	O	0.305909	0.401904	0.94657
0	H	0.179647	0.884114	0.0432593
0	H	0.825306	0.867571	0.0231714
0	H	0.674172	0.348166	0.0188831
0	H	0.328421	0.384443	0.037304
0	O	0.372342	0.691113	0.494599
0	O	0.635692	0.66137	0.587094
0	O	0.869655	0.177049	0.468674
0	O	0.130277	0.192097	0.581998
0	H	0.357211	0.690147	0.553415
0	H	0.658398	0.696229	0.558254
0	H	0.846119	0.208257	0.498172
0	H	0.144042	0.190979	0.520868
0	C	0.352473	0.540941	0.420788
0	C	0.655015	0.515698	0.663658
0	C	0.85433	0.0260506	0.407957
0	C	0.148447	0.0400549	0.650086
0	H	0.343008	0.52537	0.496338
0	H	0.661827	0.501381	0.584314
0	H	0.846861	0.0151585	0.487201
0	H	0.155641	0.0254566	0.571056
0	C	0.415204	0.521091	0.46512
0	C	0.593025	0.496521	0.6264
0	C	0.916929	0.00837804	0.449288
0	C	0.0862412	0.0210659	0.611448
0	H	0.440597	0.549287	0.559463
0	H	0.565895	0.527089	0.533816
0	H	0.942987	0.0406325	0.541263
0	H	0.0589715	0.0501518	0.517929
0	H	0.42188	0.446572	0.472123
0	H	0.585102	0.422505	0.61661
0	H	0.925808	0.934483	0.4625
0	H	0.0784786	0.946777	0.60287
0	C	0.437526	0.561446	0.384483
0	C	0.575002	0.535391	0.715215
0	C	0.936649	0.0456543	0.362477
0	C	0.0670659	0.0605301	0.698098
0	H	0.420532	0.522614	0.297266
0	H	0.596642	0.498257	0.803763
0	H	0.9191	0.0036666	0.277913
0	H	0.0857366	0.0206056	0.784567
0	H	0.484355	0.553148	0.431676
0	H	0.528912	0.524132	0.677564
0	H	0.983616	0.0393364	0.407293
0	H	0.0202666	0.052811	0.655263
0	C	0.422814	0.662632	0.3561
0	C	0.587867	0.637555	0.736339
0	C	0.919894	0.145646	0.328874
0	C	0.0828309	0.161395	0.726979
0	H	0.441921	0.70033	0.445678
0	H	0.566882	0.672167	0.644405
0	H	0.938217	0.185821	0.416503
0	H	0.0628604	0.199679	0.637754
0	C	0.357188	0.676987	0.291702
0	C	0.653071	0.653807	0.794931
0	C	0.854025	0.15613	0.264475
0	C	0.148453	0.174084	0.787188
0	C	0.342597	0.779381	0.269558
0	C	0.665859	0.756923	0.808448
0	C	0.837145	0.257301	0.235532
0	C	0.164477	0.27586	0.812369
0	H	0.367609	0.815598	0.358151
0	H	0.639207	0.789636	0.717918
0	H	0.861954	0.296901	0.321235
0	H	0.138582	0.313827	0.725646
0	H	0.356359	0.806337	0.206242
0	H	0.652903	0.786506	0.871993
0	H	0.849644	0.282255	0.169209
0	H	0.152619	0.301582	0.879418
0	C	0.278854	0.797191	0.218361
0	C	0.728993	0.776995	0.854453
0	C	0.773285	0.272973	0.185569
0	C	0.228019	0.292834	0.85915
0	H	0.254652	0.757068	0.131338
0	H	0.754754	0.74094	0.944621
0	H	0.749076	0.232383	0.0989264
0	H	0.253535	0.25181	0.945211
0	C	0.260564	0.762481	0.309276
0	C	0.746504	0.737898	0.764271
0	C	0.75577	0.238957	0.278175
0	C	0.243598	0.258789	0.763545
0	H	0.283097	0.801331	0.397022
0	H	0.722785	0.772215	0.67354
0	H	0.776662	0.280455	0.363245
0	H	0.220228	0.29864	0.67689
0	H	0.214647	0.775201	0.27251
0	H	0.791963	0.75176	0.797604
0	H	0.709541	0.248522	0.240205
0	H	0.289368	0.270319	0.797238
0	C	0.274068	0.66141	0.335982
0	C	0.734474	0.635698	0.746575
0	C	0.772003	0.139346	0.311546
0	C	0.228758	0.158132	0.734949
0	H	0.24836	0.619995	0.252514
0	H	0.761145	0.598017	0.832865
0	H	0.74743	0.0944096	0.231489
0	H	0.254734	0.115721	0.817246
0	H	0.26168	0.638746	0.403887
0	H	0.7461	0.609363	0.67899
0	H	0.760839	0.11849	0.382143
0	H	0.239781	0.135719	0.664863
0	C	0.337314	0.642113	0.382576
0	C	0.671535	0.616365	0.702889
0	C	0.835684	0.124431	0.359088
0	C	0.165616	0.140404	0.691349
0	C	0.262555	0.898171	0.182844
0	C	0.742984	0.879529	0.880945
0	C	0.756573	0.374041	0.150982
0	C	0.244913	0.393626	0.895866
0	C	0.286621	0.962947	0.29229
0	C	0.719026	0.938608	0.765791
0	C	0.780171	0.438414	0.260954
0	C	0.220891	0.458623	0.786401
0	H	0.263065	0.957178	0.342524
0	H	0.742834	0.927842	0.716747
0	H	0.755688	0.43261	0.309434
0	H	0.24608	0.455178	0.739437
0	H	0.282926	0.0337429	0.262682
0	H	0.722853	0.0108366	0.788873
0	H	0.777087	0.509251	0.232241
0	H	0.222764	0.529101	0.81555
0	H	0.331518	0.94921	0.356457
0	H	0.674262	0.923491	0.70269
0	H	0.824654	0.423433	0.326824
0	H	0.176751	0.442567	0.719431
0	C	0.276133	0.928022	0.0830802
0	C	0.726342	0.913891	0.974303
0	C	0.769753	0.405949	0.0514266
0	C	0.23133	0.423395	0.995691
0	H	0.262151	0.877544	0.00894302
0	H	0.75314	0.884065	0.0656435
0	H	0.764731	0.35182	0.986913
0	H	0.248669	0.375586	0.0735888
0	H	0.321671	0.940163	0.119776
0	H	0.682039	0.897773	0.945928
0	H	0.81296	0.432509	0.0904246
0	H	0.185545	0.428944	0.960456
0	H	0.253996	0.991445	0.0399295
0	H	0.731182	0.988024	0.985762
0	H	0.740152	0.460427	0.994987
0	H	0.2503	0.489703	0.0335846
0	C	0.327006	0.62506	0.169627
0	C	0.685653	0.606635	0.920158
0	C	0.824518	0.09933	0.146555
0	C	0.179802	0.119679	0.906997
0	H	0.280801	0.634083	0.122844
0	H	0.728194	0.635353	0.976699
0	H	0.779018	0.114056	0.0933978
0	H	0.225779	0.131042	0.953437
0	H	0.335218	0.551477	0.183861
0	H	0.691274	0.533438	0.910817
0	H	0.828923	0.0259959	0.167023
0	H	0.172817	0.0460513	0.89003
0	H	0.341717	0.647533	0.106729
0	H	0.663269	0.612915	0.972565
0	H	0.84276	0.11218	0.0870757
0	H	0.165096	0.138133	0.97133
0	C	0.449171	0.698996	0.28101
0	C	0.562881	0.676544	0.812724
0	C	0.945394	0.181569	0.251974
0	C	0.0586186	0.198284	0.805922
0	H	0.495216	0.687595	0.329668
0	H	0.516942	0.664876	0.76724
0	H	0.991743	0.174134	0.30172
0	H	0.0124543	0.18862	0.759591
0	H	0.442349	0.772011	0.265338
0	H	0.569404	0.749896	0.82462
0	H	0.936411	0.253821	0.231777
0	H	0.0666117	0.27102	0.822782
0	H	0.43143	0.665944	0.191129
0	H	0.582136	0.645905	0.904426
0	H	0.928725	0.145569	0.164337
0	H	0.0770527	0.164304	0.895327
0	O	0.28776	0.331959	0.410738
0	O	0.717557	0.321098	0.643383
0	O	0.789172	0.819463	0.41385
0	O	0.212821	0.830819	0.655543
0	H	0.322749	0.308943	0.487293
0	H	0.682652	0.303721	0.562518
0	H	0.824331	0.800555	0.493633
0	H	0.17829	0.807643	0.577825
0	O	0.158367	0.919668	0.292928
0	O	0.848728	0.911432	0.779469
0	O	0.659967	0.407329	0.273639
0	O	0.345617	0.420633	0.779379
0	H	0.174088	0.904134	0.236604
0	H	0.832425	0.892649	0.833444
0	H	0.673809	0.386804	0.215591
0	H	0.331366	0.403011	0.837709
0	O	0.165704	0.276086	0.451671
0	O	0.8436	0.26315	0.621332
0	O	0.665602	0.757131	0.443585
0	O	0.336255	0.777385	0.619205
0	H	0.187474	0.297155	0.538709
0	H	0.866526	0.317878	0.654226
0	H	0.643242	0.812856	0.415098
0	H	0.314927	0.799024	0.532281
0	C	0.243383	0.344129	0.441735
0	C	0.764148	0.334262	0.619875
0	C	0.743007	0.83088	0.439155
0	C	0.257843	0.844726	0.626954
0	H	0.265012	0.349973	0.544269
0	H	0.745685	0.339081	0.518
0	H	0.762143	0.835165	0.541301
0	H	0.236908	0.851069	0.524535
0	C	0.212105	0.432506	0.382834
0	C	0.794247	0.422921	0.681372
0	C	0.712396	0.919689	0.379381
0	C	0.288362	0.933365	0.687185
0	H	0.243791	0.484929	0.394494
0	H	0.7617	0.475932	0.662067
0	H	0.744968	0.971581	0.394232
0	H	0.256061	0.98478	0.675137
0	H	0.191159	0.456667	0.434494
0	H	0.818434	0.447268	0.637001
0	H	0.690811	0.945115	0.428921
0	H	0.309465	0.958904	0.636502
0	C	0.167844	0.424824	0.246354
0	C	0.833446	0.415597	0.820536
0	C	0.669914	0.913403	0.241501
0	C	0.332277	0.925817	0.823955
0	H	0.142813	0.48826	0.216539
0	H	0.857962	0.479245	0.85506
0	H	0.644688	0.976648	0.210992
0	H	0.356785	0.989705	0.85488
0	H	0.189644	0.419599	0.191568
0	H	0.807319	0.410368	0.866024
0	H	0.69348	0.910259	0.190134
0	H	0.310257	0.919538	0.878193
0	C	0.127389	0.343711	0.218389
0	C	0.874514	0.334428	0.85789
0	C	0.629794	0.831241	0.207763
0	C	0.373328	0.845543	0.85191
0	H	0.106091	0.350811	0.275256
0	H	0.900485	0.341881	0.81101
0	H	0.606407	0.836575	0.260665
0	H	0.394744	0.853615	0.795453
0	C	0.161977	0.253596	0.258501
0	C	0.840505	0.243929	0.811463
0	C	0.665084	0.741661	0.248843
0	C	0.339205	0.754949	0.811091
0	C	0.122256	0.170905	0.232669
0	C	0.881488	0.162347	0.843051
0	C	0.625365	0.658419	0.216951
0	C	0.379251	0.672738	0.837414
0	H	0.0922061	0.165896	0.132929
0	H	0.908764	0.157019	0.943885
0	H	0.597236	0.654287	0.116268
0	H	0.409117	0.667944	0.937289
0	H	0.0964241	0.181974	0.277757
0	H	0.910016	0.174252	0.804667
0	H	0.597627	0.667452	0.257922
0	H	0.405202	0.684286	0.792711
0	C	0.156778	0.0827969	0.280142
0	C	0.848166	0.0738502	0.790099
0	C	0.659796	0.570383	0.265903
0	C	0.345181	0.584161	0.790035
0	H	0.184437	0.0758645	0.237001
0	H	0.817464	0.0652593	0.82521
0	H	0.689803	0.564711	0.228706
0	H	0.317628	0.576627	0.833299
0	C	0.195717	0.0893609	0.420136
0	C	0.813562	0.0804025	0.649121
0	C	0.695319	0.575352	0.406938
0	C	0.30607	0.590194	0.650069
0	H	0.169402	0.0942024	0.465541
0	H	0.842954	0.0863421	0.611334
0	H	0.666514	0.579467	0.446291
0	H	0.332234	0.594633	0.604214
0	H	0.220798	0.0261727	0.454188
0	H	0.789308	0.0169263	0.611628
0	H	0.720091	0.512126	0.442472
0	H	0.281046	0.526905	0.616671
0	C	0.235183	0.171639	0.4562
0	C	0.773546	0.162259	0.60638
0	C	0.734765	0.658005	0.44994
0	C	0.266494	0.67245	0.612904
0	H	0.267525	0.162005	0.426799
0	H	0.737543	0.152365	0.624222
0	H	0.769967	0.650109	0.429093
0	H	0.233431	0.662902	0.64008
0	H	0.259797	0.177523	0.558153
0	H	0.75377	0.169202	0.504764
0	H	0.755566	0.663462	0.551749
0	H	0.242511	0.678223	0.510819
0	C	0.202986	0.260161	0.400587
0	C	0.804435	0.25046	0.668052
0	C	0.703111	0.746475	0.392011
0	C	0.298495	0.761156	0.668871
0	C	0.119187	0.996167	0.243533
0	C	0.886941	0.988498	0.833045
0	C	0.621561	0.484417	0.221364
0	C	0.383715	0.498503	0.827702
0	C	0.0825309	0.988131	0.304181
0	C	0.927614	0.98132	0.782264
0	C	0.58053	0.475963	0.271029
0	C	0.420487	0.492	0.767123
0	H	0.10888	0.978419	0.403958
0	H	0.904522	0.979686	0.681364
0	H	0.602988	0.478008	0.371889
0	H	0.394479	0.475807	0.668944
0	H	0.0535327	0.930011	0.268373
0	H	0.953123	0.918963	0.813748
0	H	0.556953	0.411618	0.242445
0	H	0.452795	0.438882	0.808904
0	H	0.0567286	0.0490057	0.288989
0	H	0.95681	0.0390398	0.810493
0	H	0.549526	0.531279	0.238391
0	H	0.442521	0.556008	0.77474
0	C	0.0842555	0.985369	0.103871
0	C	0.918056	0.978819	0.973119
0	C	0.59074	0.475492	0.0811189
0	C	0.418709	0.489155	0.967546
0	H	0.111718	0.984034	0.0621123
0	H	0.887953	0.977099	0.00825064
0	H	0.621151	0.475137	0.0466812
0	H	0.391187	0.487493	0.0092519
0	H	0.0538801	0.0407668	0.0607215
0	H	0.947485	0.0349533	0.0188737
0	H	0.560894	0.531115	0.0355081
0	H	0.448454	0.545474	0.00961636
0	H	0.0601138	0.921861	0.0782411
0	H	0.942709	0.915779	0.00308914
0	H	0.566741	0.411924	0.0505175
0	H	0.443484	0.426239	0.994728
0	C	0.1961	0.24084	0.191724
0	C	0.802326	0.229266	0.867955
0	C	0.701741	0.732086	0.187822
0	C	0.304718	0.741654	0.87685
0	H	0.230537	0.290971	0.222049
0	H	0.766904	0.277836	0.831579
0	H	0.7358	0.783151	0.222704
0	H	0.270069	0.791499	0.845008
0	H	0.168883	0.247496	0.0920553
0	H	0.826264	0.235996	0.96828
0	H	0.676394	0.739733	0.0878511
0	H	0.331546	0.749008	0.976592
0	H	0.216004	0.173633	0.209448
0	H	0.783614	0.160995	0.847437
0	H	0.722229	0.665293	0.206313
0	H	0.28537	0.674039	0.85939
0	C	0.0815206	0.344742	0.0824958
0	C	0.915453	0.335052	0.996604
0	C	0.585452	0.83228	0.0710202
0	C	0.418949	0.846616	0.988012
0	H	0.0514704	0.288704	0.0605359
0	H	0.943244	0.27535	0.0258629
0	H	0.557942	0.772319	0.0448925
0	H	0.450308	0.792748	0.00948427
0	H	0.0998245	0.338392	0.0219774
0	H	0.892785	0.334591	0.0488197
0	H	0.605143	0.832785	0.0128055
0	H	0.400572	0.836973	0.0479677
0	H	0.0570548	0.407788	0.0586525
0	H	0.94289	0.39497	0.0247357
0	H	0.557802	0.891752	0.0474204
0	H	0.441955	0.911098	0.013286
