#******************************************
#
# CIF file created by Zeo++
# Zeo++ is an open source package to
# analyze microporous materials
#
#*******************************************

_cell_length_a		5.64835(0)
_cell_length_b		18.0643(0)
_cell_length_c		13.2469(0)
_cell_angle_alpha		90(0)
_cell_angle_beta		90(0)
_cell_angle_gamma		90(0)

_symmetry_space_group_name_H-M		'P1'
_symmetry_Int_Tables_number		1
_symmetry_cell_setting		Monoclinic

loop_
_symmetry_equiv_pos_as_xyz
'+x,+y,+z'

loop_
_atom_site_label
_atom_site_type_symbol
_atom_site_fract_x
_atom_site_fract_y
_atom_site_fract_z
0	Br	0.251544	0.0752461	0.471652
0	Br	0.814708	0.965043	0.466985
0	Br	0.292527	0.583346	0.526982
0	Br	0.759331	0.452468	0.518142
0	O	0.251786	0.530426	0.818129
0	O	0.768033	0.497135	0.73773
0	O	0.297401	0.0399132	0.19276
0	O	0.780115	0.987824	0.228169
0	C	0.278494	0.433295	0.936892
0	C	0.780198	0.574766	0.884193
0	C	0.28249	0.946369	0.0674292
0	C	0.776935	0.0710093	0.0879466
0	H	0.0992971	0.411752	0.958435
0	H	0.965679	0.58969	0.906556
0	H	0.461312	0.92436	0.0465816
0	H	0.594205	0.0892259	0.0660551
0	H	0.314065	0.478466	0.991678
0	H	0.738397	0.523598	0.926855
0	H	0.250953	0.993036	0.0145439
0	H	0.81307	0.0211971	0.0415803
0	C	0.266426	0.46379	0.830652
0	C	0.778907	0.559574	0.771722
0	C	0.290085	0.973649	0.175463
0	C	0.775305	0.0518063	0.199393
0	C	0.26013	0.409016	0.74454
0	C	0.802595	0.626809	0.704457
0	C	0.300775	0.915663	0.257236
0	C	0.755763	0.116168	0.271534
0	H	0.303846	0.437781	0.672327
0	H	0.772616	0.611144	0.62426
0	H	0.265859	0.941276	0.332175
0	H	0.784408	0.0976815	0.350561
0	H	0.0717068	0.39133	0.734271
0	H	0.991321	0.645395	0.707358
0	H	0.48919	0.896358	0.262307
0	H	0.567165	0.135452	0.270261
0	O	0.768633	0.247735	0.842884
0	O	0.294715	0.770519	0.842233
0	O	0.778481	0.762189	0.152585
0	O	0.270416	0.264007	0.141819
0	C	0.302946	0.159524	0.557173
0	C	0.753661	0.882389	0.553711
0	C	0.245192	0.666766	0.439669
0	C	0.81259	0.369148	0.432387
0	N	0.576343	0.247823	0.884721
0	N	0.490462	0.767257	0.880873
0	N	0.968865	0.761634	0.109227
0	N	0.073283	0.26138	0.104559
0	C	0.513461	0.199457	0.548824
0	C	0.542007	0.843351	0.542727
0	C	0.0354524	0.707235	0.447569
0	C	0.0232028	0.329377	0.442539
0	H	0.649249	0.183625	0.494171
0	H	0.407839	0.860681	0.488212
0	H	0.899109	0.692139	0.502366
0	H	0.158345	0.345994	0.497105
0	C	0.550483	0.260463	0.61206
0	C	0.503202	0.780855	0.602704
0	C	0.999631	0.767951	0.383828
0	C	0.0607323	0.267365	0.381491
0	H	0.715216	0.291754	0.605429
0	H	0.337688	0.750173	0.5947
0	H	0.834967	0.799393	0.389611
0	H	0.225891	0.236357	0.388597
0	O	0.509021	0.198929	0.941606
0	O	0.562259	0.811638	0.943437
0	O	0.0293749	0.713913	0.0492965
0	O	0.997981	0.30728	0.0446253
0	C	0.463291	0.372349	0.94627
0	C	0.60781	0.636253	0.913095
0	C	0.0942493	0.886741	0.0542272
0	C	0.956895	0.131644	0.064586
0	H	0.457317	0.348723	0.0241393
0	H	0.626664	0.648948	0.99499
0	H	0.0985419	0.865601	0.97518
0	H	0.944519	0.147289	0.983447
0	H	0.645682	0.394386	0.935894
0	H	0.421104	0.617318	0.901429
0	H	0.913208	0.909831	0.0666888
0	H	0.141514	0.111232	0.0774967
0	C	0.378583	0.281176	0.683211
0	C	0.675113	0.757587	0.672278
0	C	0.172773	0.7882	0.31296
0	C	0.887621	0.245196	0.311843
0	C	0.407814	0.312311	0.867321
0	C	0.65947	0.705626	0.849467
0	C	0.14468	0.823799	0.12955
0	C	0.905343	0.198809	0.132515
0	H	0.222432	0.290901	0.880819
0	H	0.84477	0.725399	0.866621
0	H	0.327499	0.800937	0.114504
0	H	0.719893	0.219105	0.116641
0	C	0.165616	0.241359	0.687647
0	C	0.88482	0.798427	0.682868
0	C	0.383821	0.747452	0.308138
0	C	0.677146	0.28591	0.303194
0	H	0.0267669	0.25805	0.740547
0	H	0.0197339	0.781318	0.73739
0	H	0.522428	0.763361	0.254688
0	H	0.540361	0.26905	0.249407
0	C	0.428459	0.342935	0.758057
0	C	0.631584	0.688891	0.735163
0	C	0.126835	0.851482	0.240317
0	C	0.93086	0.178234	0.245692
0	H	0.615013	0.363995	0.746423
0	H	0.444606	0.668665	0.722273
0	H	0.941256	0.873687	0.252709
0	H	0.11671	0.156547	0.258256
0	C	0.126875	0.179901	0.625801
0	C	0.925125	0.861406	0.624114
0	C	0.420977	0.686091	0.370378
0	C	0.638842	0.348531	0.362822
0	H	0.962293	0.148424	0.632257
0	H	0.0878434	0.893335	0.633653
0	H	0.58407	0.65398	0.363671
0	H	0.476152	0.380592	0.354433
