#******************************************
#
# CIF file created by Zeo++
# Zeo++ is an open source package to
# analyze microporous materials
#
#*******************************************

_cell_length_a		16.9224(0)
_cell_length_b		19.2784(0)
_cell_length_c		12.7433(0)
_cell_angle_alpha		96.8387(0)
_cell_angle_beta		100.914(0)
_cell_angle_gamma		73.4918(0)

_symmetry_space_group_name_H-M		'P1'
_symmetry_Int_Tables_number		1
_symmetry_cell_setting		Triclinic

loop_
_symmetry_equiv_pos_as_xyz
'+x,+y,+z'

loop_
_atom_site_label
_atom_site_type_symbol
_atom_site_fract_x
_atom_site_fract_y
_atom_site_fract_z
0	S	0.0904609	0.296673	0.658649
0	S	0.855949	0.684154	0.363977
0	S	0.0957465	0.16319	0.445626
0	S	0.850673	0.817531	0.576881
0	S	0.0783746	0.179723	0.984259
0	S	0.868219	0.800983	0.0387307
0	S	0.251756	0.15148	0.187615
0	S	0.694774	0.829203	0.835348
0	N	0.976553	0.306898	0.357515
0	N	0.969891	0.673906	0.665198
0	N	0.00117121	0.395599	0.686696
0	N	0.945394	0.585254	0.33597
0	N	0.00499748	0.15552	0.287963
0	N	0.94163	0.825177	0.734749
0	N	0.305198	0.0620871	0.978054
0	N	0.641363	0.918516	0.0450179
0	N	0.0528621	0.119052	0.829298
0	N	0.893728	0.86157	0.193695
0	N	0.372124	0.0637484	0.203398
0	N	0.574384	0.916776	0.819651
0	C	0.893772	0.30132	0.325962
0	C	0.0527061	0.679371	0.696901
0	C	0.843814	0.352155	0.390814
0	C	0.102657	0.6285	0.632086
0	C	0.979118	0.357748	0.443162
0	C	0.967314	0.623101	0.579505
0	C	0.897281	0.386565	0.466185
0	C	0.0491697	0.594193	0.556585
0	C	0.872681	0.44057	0.551651
0	C	0.07379	0.540206	0.471116
0	C	0.92055	0.444246	0.649728
0	C	0.0259843	0.536571	0.372983
0	C	0.901265	0.500272	0.739124
0	C	0.0452941	0.480569	0.283578
0	C	0.965774	0.486259	0.821829
0	C	0.980844	0.494629	0.200813
0	C	0.0277235	0.421082	0.786392
0	C	0.918877	0.559792	0.236259
0	C	0.108614	0.382431	0.840929
0	C	0.837935	0.598358	0.181727
0	C	0.145691	0.320426	0.786231
0	C	0.800758	0.660321	0.236419
0	C	0.225042	0.266804	0.810601
0	C	0.72128	0.713797	0.212131
0	C	0.238785	0.211124	0.735392
0	C	0.707415	0.769441	0.287388
0	C	0.17194	0.214179	0.642843
0	C	0.774313	0.766515	0.379855
0	C	0.173882	0.16307	0.561822
0	C	0.772375	0.817613	0.4609
0	C	0.241671	0.0964209	0.552839
0	C	0.704515	0.884171	0.470138
0	C	0.230434	0.0517533	0.464694
0	C	0.715861	0.928834	0.558268
0	C	0.152338	0.0773874	0.392625
0	C	0.7941	0.903253	0.630121
0	C	0.11874	0.0468674	0.299761
0	C	0.827783	0.933777	0.72293
0	C	0.0392025	0.0891216	0.245814
0	C	0.907359	0.891559	0.776866
0	C	0.984341	0.069692	0.147747
0	C	0.962137	0.911001	0.875032
0	C	0.915511	0.126646	0.133385
0	C	0.0309322	0.854023	0.889531
0	C	0.924932	0.183416	0.221552
0	C	0.021613	0.797262	0.801333
0	C	0.871586	0.24917	0.241229
0	C	0.0749075	0.731466	0.781735
0	C	0.790722	0.494494	0.524872
0	C	0.155727	0.486259	0.497946
0	C	0.777424	0.535204	0.435657
0	C	0.16907	0.445686	0.587316
0	C	0.700722	0.58565	0.407594
0	C	0.245752	0.395214	0.615397
0	C	0.636664	0.595153	0.467398
0	C	0.309747	0.385566	0.555441
0	C	0.649756	0.55466	0.556183
0	C	0.29661	0.425903	0.466473
0	C	0.726717	0.504629	0.585407
0	C	0.219662	0.475944	0.437235
0	C	0.145066	0.410639	0.945629
0	C	0.801535	0.570023	0.0770939
0	C	0.144715	0.484116	0.96251
0	C	0.801901	0.496534	0.0604968
0	C	0.178034	0.511059	0.0625235
0	C	0.768695	0.469414	0.960556
0	C	0.213438	0.465076	0.145803
0	C	0.733407	0.515213	0.877032
0	C	0.215305	0.391661	0.128858
0	C	0.731519	0.588641	0.8937
0	C	0.180726	0.364553	0.0296443
0	C	0.765964	0.615936	0.992863
0	C	0.158779	0.973887	0.255152
0	C	0.787699	0.00673311	0.767593
0	C	0.179928	0.914783	0.319491
0	C	0.76662	0.0658676	0.703335
0	C	0.219706	0.8456	0.279662
0	C	0.726793	0.135028	0.743198
0	C	0.238494	0.834812	0.175722
0	C	0.70787	0.145759	0.847067
0	C	0.216044	0.893241	0.111049
0	C	0.730247	0.0872832	0.911643
0	C	0.176641	0.962827	0.15031
0	C	0.769701	0.0177218	0.872366
0	C	0.786381	0.271232	0.178561
0	C	0.160063	0.709278	0.844496
0	C	0.733423	0.225351	0.165755
0	C	0.213043	0.755179	0.857772
0	C	0.652773	0.246598	0.107598
0	C	0.293683	0.733774	0.91591
0	C	0.62439	0.313667	0.0622942
0	C	0.322055	0.666513	0.96066
0	C	0.676885	0.359602	0.0753781
0	C	0.269538	0.620578	0.947126
0	C	0.757573	0.338698	0.133461
0	C	0.188845	0.641646	0.889112
0	C	0.329272	0.986859	0.992261
0	C	0.617276	0.993741	0.0307775
0	C	0.278229	0.954787	0.912785
0	C	0.668341	0.0258305	0.110215
0	C	0.238827	0.0771902	0.895558
0	C	0.707761	0.903422	0.12748
0	C	0.220077	0.0112331	0.854053
0	C	0.726519	0.96939	0.168936
0	C	0.151592	0.00413624	0.769482
0	C	0.795013	0.976497	0.253507
0	C	0.076924	0.0553529	0.757298
0	C	0.869661	0.925257	0.265713
0	C	0.00553709	0.058588	0.667622
0	C	0.941009	0.921955	0.355476
0	C	0.944421	0.119614	0.685028
0	C	0.00205428	0.860857	0.338154
0	C	0.975888	0.156157	0.786476
0	C	0.970636	0.824381	0.236624
0	C	0.935352	0.223076	0.842825
0	C	0.0111673	0.757481	0.180247
0	C	0.978677	0.240257	0.938269
0	C	0.967867	0.740378	0.0847398
0	C	0.960054	0.301569	0.0159944
0	C	0.986507	0.679123	0.00693781
0	C	0.019555	0.299502	0.103325
0	C	0.927058	0.681277	0.91954
0	C	0.0928621	0.236419	0.105103
0	C	0.853733	0.744341	0.917828
0	C	0.159663	0.226081	0.18279
0	C	0.786932	0.754662	0.840144
0	C	0.171775	0.275617	0.277178
0	C	0.774884	0.705136	0.745737
0	C	0.246959	0.257385	0.341088
0	C	0.699697	0.723309	0.681829
0	C	0.302605	0.189796	0.306863
0	C	0.643974	0.790837	0.716107
0	C	0.380984	0.153045	0.350057
0	C	0.565533	0.82749	0.672991
0	C	0.413958	0.0824428	0.298164
0	C	0.5325	0.898059	0.724935
0	C	0.48805	0.022773	0.333686
0	C	0.458307	0.957659	0.689521
0	C	0.488272	0.966886	0.257847
0	C	0.458078	0.0135511	0.765368
0	C	0.415739	0.990514	0.171686
0	C	0.530715	0.989979	0.851424
0	C	0.393621	0.953711	0.077533
0	C	0.552885	0.0268287	0.945516
0	C	0.167293	0.937656	0.696305
0	C	0.779308	0.0429607	0.326718
0	C	0.241057	0.915742	0.651467
0	C	0.705502	0.0648839	0.371468
0	C	0.256392	0.853233	0.582496
0	C	0.690174	0.127364	0.440506
0	C	0.19866	0.811794	0.558049
0	C	0.747948	0.168766	0.465096
0	C	0.125546	0.833084	0.603124
0	C	0.821084	0.147474	0.420071
0	C	0.109823	0.895695	0.672097
0	C	0.836811	0.0848947	0.351048
0	C	0.852944	0.266926	0.794215
0	C	0.0935849	0.713605	0.22879
0	C	0.842299	0.291576	0.691618
0	C	0.104341	0.688975	0.331413
0	C	0.763636	0.33109	0.644165
0	C	0.183034	0.649422	0.37874
0	C	0.695446	0.34692	0.698623
0	C	0.251133	0.633553	0.324118
0	C	0.706146	0.323333	0.801155
0	C	0.240321	0.65712	0.221545
0	C	0.784687	0.283423	0.84917
0	C	0.161751	0.697043	0.173655
0	C	0.432567	0.181727	0.441869
0	C	0.513951	0.798748	0.581253
0	C	0.457032	0.244298	0.432536
0	C	0.489384	0.736268	0.590818
0	C	0.507262	0.27124	0.518389
0	C	0.439155	0.709251	0.505062
0	C	0.533402	0.236125	0.613835
0	C	0.413139	0.744169	0.409438
0	C	0.509415	0.173709	0.622785
0	C	0.437248	0.806483	0.400239
0	C	0.458812	0.146583	0.537771
0	C	0.487828	0.833705	0.48519
0	C	0.435513	0.875623	0.0583705
0	C	0.510951	0.104918	0.964593
0	C	0.442918	0.826925	0.135479
0	C	0.503654	0.153578	0.887472
0	C	0.484881	0.753773	0.119806
0	C	0.461627	0.226726	0.903022
0	C	0.519266	0.728393	0.0264735
0	C	0.427029	0.25213	0.996199
0	C	0.510445	0.776452	0.9483
0	C	0.435718	0.204095	0.0743536
0	C	0.468142	0.849585	0.963456
0	C	0.478111	0.130972	0.059355
0	H	0.0267858	0.272166	0.329257
0	H	0.919654	0.708672	0.693413
0	H	0.777521	0.363067	0.385493
0	H	0.16897	0.617497	0.637515
0	H	0.0355587	0.372314	0.481208
0	H	0.910847	0.608617	0.541364
0	H	0.844304	0.543392	0.734636
0	H	0.102209	0.437398	0.288093
0	H	0.972774	0.514091	0.899848
0	H	0.973878	0.466838	0.122763
0	H	0.267647	0.273151	0.884033
0	H	0.67869	0.707379	0.138721
0	H	0.294737	0.166018	0.740233
0	H	0.651333	0.814411	0.282645
0	H	0.296221	0.0857681	0.61521
0	H	0.649837	0.894764	0.407961
0	H	0.274159	0.000666031	0.444986
0	H	0.6721	0.979858	0.578148
0	H	0.999985	0.019275	0.10019
0	H	0.946447	0.961424	0.922563
0	H	0.862376	0.13358	0.070167
0	H	0.0839877	0.847079	0.952873
0	H	0.827243	0.527435	0.388498
0	H	0.119277	0.453559	0.634555
0	H	0.691109	0.617795	0.339035
0	H	0.255386	0.363143	0.68404
0	H	0.576716	0.634473	0.444822
0	H	0.369672	0.346213	0.578016
0	H	0.599983	0.562237	0.602925
0	H	0.346315	0.418182	0.419575
0	H	0.736837	0.473447	0.655229
0	H	0.209501	0.506994	0.367258
0	H	0.118758	0.520198	0.897381
0	H	0.827812	0.460574	0.125777
0	H	0.17607	0.568452	0.0762536
0	H	0.770672	0.412011	0.947045
0	H	0.238887	0.486682	0.223779
0	H	0.708077	0.493466	0.799103
0	H	0.243477	0.35528	0.193236
0	H	0.703444	0.624881	0.829127
0	H	0.180186	0.307635	0.0178336
0	H	0.766465	0.672867	0.00447548
0	H	0.164792	0.922902	0.400413
0	H	0.781799	0.0577852	0.622437
0	H	0.2353	0.799865	0.329567
0	H	0.711252	0.180781	0.693336
0	H	0.269794	0.78101	0.14467
0	H	0.676517	0.199538	0.878142
0	H	0.229564	0.884532	0.0294448
0	H	0.716602	0.095949	0.993188
0	H	0.160782	0.00845867	0.0998369
0	H	0.785501	0.972049	0.922745
0	H	0.75501	0.173517	0.202795
0	H	0.19149	0.807125	0.821049
0	H	0.611459	0.211052	0.0979389
0	H	0.335009	0.769341	0.925957
0	H	0.56116	0.330233	0.0178645
0	H	0.385295	0.649807	0.00502195
0	H	0.654648	0.412166	0.0409667
0	H	0.291767	0.567866	0.981105
0	H	0.798061	0.375054	0.144973
0	H	0.148339	0.605289	0.877293
0	H	0.329871	0.0989262	0.0267478
0	H	0.616683	0.881673	0.99636
0	H	0.281487	0.898016	0.899595
0	H	0.665082	0.0826032	0.123378
0	H	0.208298	0.131138	0.869162
0	H	0.738292	0.849476	0.153889
0	H	0.00661863	0.018516	0.601198
0	H	0.939931	0.962026	0.421907
0	H	0.884119	0.139909	0.637828
0	H	0.0622933	0.84048	0.385459
0	H	0.902406	0.344309	0.000739029
0	H	0.0441188	0.63634	0.0221838
0	H	0.0158815	0.341021	0.169117
0	H	0.930772	0.639828	0.853658
0	H	0.12222	0.323995	0.292034
0	H	0.824472	0.656783	0.730874
0	H	0.266003	0.287919	0.414272
0	H	0.680691	0.692776	0.60863
0	H	0.531097	0.0263036	0.406377
0	H	0.415225	0.954094	0.616883
0	H	0.53234	0.914344	0.25455
0	H	0.413935	0.0660484	0.768746
0	H	0.286096	0.947928	0.671038
0	H	0.660433	0.032733	0.351805
0	H	0.313685	0.836603	0.547725
0	H	0.632845	0.143998	0.475205
0	H	0.210887	0.762907	0.504356
0	H	0.735724	0.217626	0.518848
0	H	0.0802964	0.800882	0.585092
0	H	0.866355	0.179661	0.438194
0	H	0.0529059	0.911597	0.707791
0	H	0.893737	0.068992	0.315378
0	H	0.895774	0.280354	0.64952
0	H	0.0509177	0.700208	0.373611
0	H	0.755661	0.349796	0.564347
0	H	0.191088	0.630693	0.458555
0	H	0.634352	0.377513	0.661108
0	H	0.312242	0.602908	0.361515
0	H	0.653448	0.335772	0.844227
0	H	0.292939	0.644626	0.178324
0	H	0.792663	0.264265	0.928783
0	H	0.153678	0.71615	0.0939848
0	H	0.4372	0.271583	0.358137
0	H	0.509152	0.709095	0.665314
0	H	0.526486	0.319532	0.510798
0	H	0.419846	0.661036	0.512837
0	H	0.572777	0.257037	0.680649
0	H	0.373777	0.723191	0.342693
0	H	0.530975	0.145555	0.697142
0	H	0.415805	0.83448	0.32574
0	H	0.439506	0.0984333	0.545776
0	H	0.507204	0.881789	0.47701
0	H	0.414813	0.846395	0.208148
0	H	0.531851	0.134074	0.81488
0	H	0.490993	0.716632	0.180754
0	H	0.455596	0.263828	0.842049
0	H	0.552525	0.671393	0.014375
0	H	0.393693	0.30912	0.00818192
0	H	0.536711	0.756924	0.875078
0	H	0.409253	0.223637	0.147435
0	H	0.460069	0.886725	0.90142
0	H	0.486087	0.0938444	0.121371
