#******************************************
#
# CIF file created by Zeo++
# Zeo++ is an open source package to
# analyze microporous materials
#
#*******************************************

_cell_length_a		13.5891(0)
_cell_length_b		13.5511(0)
_cell_length_c		9.16169(0)
_cell_angle_alpha		90(0)
_cell_angle_beta		90(0)
_cell_angle_gamma		90(0)

_symmetry_space_group_name_H-M		'P1'
_symmetry_Int_Tables_number		1
_symmetry_cell_setting		Monoclinic

loop_
_symmetry_equiv_pos_as_xyz
'+x,+y,+z'

loop_
_atom_site_label
_atom_site_type_symbol
_atom_site_fract_x
_atom_site_fract_y
_atom_site_fract_z
0	C	0.44607	0.368383	0.297745
0	C	0.658334	0.738302	0.800357
0	C	0.737994	0.448162	0.548263
0	C	0.367432	0.660992	0.0480269
0	C	0.551592	0.408424	0.306993
0	C	0.552721	0.698681	0.808608
0	C	0.69817	0.553942	0.556959
0	C	0.406722	0.554864	0.0567739
0	C	0.610177	0.333385	0.212832
0	C	0.494951	0.774672	0.71524
0	C	0.773507	0.61202	0.462935
0	C	0.331499	0.496835	0.962245
0	C	0.551954	0.23624	0.239471
0	C	0.553553	0.871511	0.742998
0	C	0.870325	0.553585	0.49017
0	C	0.234966	0.555986	0.988459
0	C	0.579596	0.182501	0.381789
0	C	0.526269	0.925584	0.88529
0	C	0.924496	0.581465	0.631987
0	C	0.180031	0.52828	0.129678
0	C	0.509568	0.0968675	0.419119
0	C	0.596426	0.0114334	0.921272
0	C	0.00977459	0.51088	0.668635
0	C	0.0940089	0.598157	0.165422
0	O	0.36736	0.407644	0.312653
0	O	0.736677	0.698306	0.815209
0	O	0.698456	0.36941	0.562711
0	O	0.407045	0.73967	0.0632082
0	O	0.554559	0.504057	0.246762
0	O	0.54947	0.603468	0.746815
0	O	0.602939	0.557091	0.496431
0	O	0.502056	0.551184	0.996404
0	O	0.595258	0.362608	0.0634736
0	O	0.510529	0.745674	0.565873
0	O	0.744573	0.596399	0.313648
0	O	0.361013	0.511609	0.812993
0	O	0.449224	0.268873	0.261287
0	O	0.655982	0.838067	0.765434
0	O	0.837488	0.450836	0.513336
0	O	0.268195	0.6586	0.0114581
0	O	0.673911	0.137188	0.359305
0	O	0.431723	0.970672	0.864267
0	O	0.969981	0.675829	0.609012
0	O	0.135204	0.433652	0.105752
0	O	0.572039	0.0126252	0.444272
0	O	0.534148	0.0959451	0.945554
0	O	0.0946691	0.572965	0.690394
0	O	0.0100467	0.535132	0.18887
0	C	0.722188	0.329856	0.231388
0	C	0.382933	0.778691	0.732681
0	C	0.777205	0.724344	0.480742
0	C	0.326937	0.384557	0.980833
0	O	0.760042	0.321827	0.0849922
0	O	0.345846	0.786946	0.585843
0	O	0.784991	0.761785	0.334016
0	O	0.320603	0.34623	0.834502
0	C	0.687682	0.354755	0.979943
0	C	0.41847	0.753466	0.481683
0	C	0.752238	0.688781	0.22963
0	C	0.352646	0.419023	0.729422
0	C	0.712605	0.4577	0.927719
0	C	0.393379	0.650573	0.429264
0	C	0.649505	0.713452	0.17726
0	C	0.454965	0.393925	0.675764
0	C	0.677341	0.274642	0.866972
0	C	0.430167	0.833098	0.368196
0	C	0.832074	0.6776	0.116747
0	C	0.272255	0.429695	0.617233
0	C	0.674049	0.0351069	0.409558
0	C	0.432071	0.0733862	0.911818
0	C	0.0719043	0.675583	0.658838
0	C	0.0333713	0.432749	0.155817
0	C	0.708631	0.972103	0.28393
0	C	0.397466	0.135266	0.784891
0	C	0.134319	0.711692	0.53356
0	C	0.9709	0.396697	0.0306256
0	C	0.733524	0.0277041	0.549099
0	C	0.372937	0.0824856	0.0513764
0	C	0.0792904	0.733538	0.799956
0	C	0.0264914	0.37383	0.296057
0	H	0.608979	0.544948	0.300671
0	H	0.495112	0.562254	0.8003
0	H	0.561766	0.610989	0.551317
0	H	0.542892	0.496933	0.0509652
0	H	0.57644	0.409455	0.423854
0	H	0.527903	0.697138	0.925499
0	H	0.697044	0.578881	0.673766
0	H	0.407445	0.529797	0.17362
0	H	0.549572	0.18741	0.1411
0	H	0.556606	0.920354	0.644705
0	H	0.918772	0.550578	0.39158
0	H	0.186931	0.559045	0.889403
0	H	0.58947	0.23509	0.474355
0	H	0.517038	0.873154	0.978226
0	H	0.872403	0.591601	0.724934
0	H	0.231549	0.518457	0.223378
0	H	0.468075	0.107717	0.522496
0	H	0.638027	0.00106769	0.0247322
0	H	0.999586	0.470165	0.772938
0	H	0.103806	0.6399	0.268829
0	H	0.458872	0.0768144	0.329142
0	H	0.647093	0.03094	0.831037
0	H	0.0285016	0.459135	0.579249
0	H	0.0744722	0.648776	0.0748315
0	H	0.752843	0.398003	0.279818
0	H	0.351701	0.710613	0.780503
0	H	0.70933	0.755347	0.529338
0	H	0.393988	0.353218	0.0312463
0	H	0.750448	0.26334	0.288598
0	H	0.354681	0.845262	0.789856
0	H	0.843668	0.752786	0.537517
0	H	0.259711	0.356722	0.0363621
0	H	0.77768	0.456993	0.857129
0	H	0.328074	0.651526	0.359098
0	H	0.650062	0.778957	0.10738
0	H	0.453672	0.328472	0.605654
0	H	0.729254	0.506778	0.0205084
0	H	0.376894	0.60108	0.521602
0	H	0.600124	0.729501	0.26982
0	H	0.504611	0.377412	0.767815
0	H	0.65115	0.491753	0.867172
0	H	0.454703	0.616835	0.36809
0	H	0.616179	0.651781	0.116135
0	H	0.488388	0.455461	0.614491
0	H	0.746199	0.23258	0.856459
0	H	0.361802	0.875717	0.356268
0	H	0.874094	0.746447	0.104976
0	H	0.230626	0.360526	0.606156
0	H	0.658737	0.303059	0.758074
0	H	0.449419	0.804061	0.259951
0	H	0.80363	0.657927	0.00830471
0	H	0.300176	0.449257	0.508454
0	H	0.619417	0.221089	0.897612
0	H	0.488381	0.886292	0.399197
0	H	0.885424	0.619598	0.148124
0	H	0.218546	0.487277	0.648857
0	H	0.706178	0.892697	0.311425
0	H	0.400472	0.214872	0.810711
0	H	0.213516	0.710316	0.561188
0	H	0.89167	0.398977	0.058101
0	H	0.785305	0.989001	0.255215
0	H	0.320519	0.118572	0.757247
0	H	0.116248	0.788444	0.505623
0	H	0.988131	0.319656	0.00322487
0	H	0.663519	0.983973	0.185472
0	H	0.44212	0.122054	0.686396
0	H	0.123244	0.666674	0.43473
0	H	0.982559	0.441232	0.931385
0	H	0.753835	0.950896	0.573429
0	H	0.354327	0.159777	0.0753757
0	H	0.155462	0.756136	0.822987
0	H	0.950398	0.351119	0.319029
0	H	0.801703	0.0708871	0.540493
0	H	0.303878	0.040684	0.0433599
0	H	0.0338846	0.800494	0.794746
0	H	0.0718394	0.306767	0.289337
0	H	0.692499	0.0558775	0.643817
0	H	0.413527	0.0536055	0.146278
0	H	0.053786	0.690232	0.894404
0	H	0.0523649	0.416425	0.390814
