#******************************************
#
# CIF file created by Zeo++
# Zeo++ is an open source package to
# analyze microporous materials
#
#*******************************************

_cell_length_a		11.8407(0)
_cell_length_b		12.2998(0)
_cell_length_c		40.0759(0)
_cell_angle_alpha		90(0)
_cell_angle_beta		89.9459(0)
_cell_angle_gamma		90(0)

_symmetry_space_group_name_H-M		'P1'
_symmetry_Int_Tables_number		1
_symmetry_cell_setting		Monoclinic

loop_
_symmetry_equiv_pos_as_xyz
'+x,+y,+z'

loop_
_atom_site_label
_atom_site_type_symbol
_atom_site_fract_x
_atom_site_fract_y
_atom_site_fract_z
0	O	0.903624	0.823384	0.113195
0	O	0.956753	0.326569	0.388896
0	O	0.885903	0.198824	0.882773
0	O	0.83274	0.694556	0.610274
0	O	0.26799	0.222009	0.249574
0	O	0.620349	0.717539	0.246202
0	O	0.520215	0.796842	0.747764
0	O	0.171069	0.300485	0.752278
0	O	0.202948	0.392426	0.0600576
0	O	0.637791	0.900279	0.438285
0	O	0.587153	0.628657	0.937301
0	O	0.151809	0.120695	0.559647
0	O	0.801974	0.235201	0.0938546
0	O	0.042906	0.741164	0.410748
0	O	0.987255	0.786571	0.902756
0	O	0.747136	0.27999	0.587624
0	O	0.131245	0.802844	0.219524
0	O	0.746773	0.299947	0.282021
0	O	0.659483	0.215054	0.778114
0	O	0.0421433	0.716991	0.716064
0	O	0.485597	0.0332911	0.0631346
0	O	0.34463	0.549357	0.432336
0	O	0.304937	0.988124	0.934376
0	O	0.445132	0.471496	0.565261
0	O	0.491079	0.357215	0.150361
0	O	0.383897	0.863432	0.343777
0	O	0.296761	0.663134	0.847379
0	O	0.407625	0.156547	0.653724
0	O	0.52484	0.928777	0.191744
0	O	0.347487	0.433658	0.303926
0	O	0.266689	0.0917943	0.805949
0	O	0.440833	0.58624	0.693896
0	O	0.845666	0.135324	0.211549
0	O	0.028758	0.631615	0.289273
0	O	0.945763	0.88379	0.785472
0	O	0.760115	0.386223	0.708869
0	O	0.100382	0.995593	0.0161745
0	O	0.716406	0.501014	0.477043
0	O	0.690408	0.0260839	0.980996
0	O	0.0734512	0.519981	0.521207
0	C	0.055363	0.463054	0.181157
0	C	0.836631	0.961464	0.31479
0	C	0.734199	0.556937	0.816737
0	C	0.957307	0.0584725	0.68202
0	H	0.0475074	0.428429	0.156063
0	H	0.857359	0.92827	0.339435
0	H	0.741751	0.592345	0.841741
0	H	0.942216	0.0945305	0.657391
0	H	0.969853	0.475238	0.190993
0	H	0.916575	0.975841	0.301627
0	H	0.819819	0.545792	0.806864
0	H	0.874614	0.0446625	0.693647
0	H	0.0961964	0.400301	0.196723
0	H	0.791323	0.896922	0.301151
0	H	0.692184	0.618625	0.801045
0	H	0.00131096	0.120685	0.696991
0	C	0.610006	0.657744	0.0610203
0	C	0.237427	0.16699	0.434269
0	C	0.182031	0.364439	0.937234
0	C	0.555518	0.852846	0.562918
0	H	0.590617	0.573905	0.0537225
0	H	0.250361	0.087377	0.445921
0	H	0.20317	0.448366	0.944008
0	H	0.544229	0.932067	0.550875
0	H	0.631697	0.657146	0.087828
0	H	0.248508	0.157242	0.407058
0	H	0.156911	0.364276	0.910694
0	H	0.544554	0.864121	0.590076
0	H	0.686568	0.681977	0.0474333
0	H	0.148265	0.190229	0.438319
0	H	0.10724	0.341415	0.951809
0	H	0.644236	0.827795	0.559043
0	C	0.517165	0.545376	0.154852
0	C	0.373338	0.0529344	0.338579
0	C	0.270281	0.474991	0.843021
0	C	0.417465	0.966898	0.658742
0	H	0.464204	0.54367	0.131995
0	H	0.429172	0.0529545	0.360798
0	H	0.323623	0.476671	0.865786
0	H	0.361641	0.967224	0.636526
0	H	0.490532	0.618055	0.169175
0	H	0.398509	0.123929	0.323281
0	H	0.296442	0.402189	0.828669
0	H	0.392053	0.89588	0.673994
0	C	0.924329	0.6301	0.0710877
0	C	0.942401	0.135135	0.430405
0	C	0.861983	0.390251	0.924437
0	C	0.847847	0.883945	0.569332
0	H	0.84516	0.677062	0.0674969
0	H	0.0194388	0.187857	0.430884
0	H	0.941951	0.344283	0.927544
0	H	0.771023	0.8309	0.569231
0	H	0.907097	0.574541	0.0922421
0	H	0.96104	0.0702686	0.412053
0	H	0.876859	0.445599	0.903073
0	H	0.830373	0.948086	0.588018
0	C	0.641869	0.554483	0.144801
0	C	0.250031	0.0636789	0.349977
0	C	0.145698	0.466205	0.85326
0	C	0.540738	0.955853	0.647345
0	H	0.670732	0.47515	0.134392
0	H	0.222854	0.98558	0.361307
0	H	0.117115	0.545786	0.863572
0	H	0.568266	0.0339619	0.636105
0	H	0.649649	0.61423	0.123928
0	H	0.244888	0.125372	0.370371
0	H	0.138185	0.406843	0.874239
0	H	0.545608	0.894371	0.626863
0	C	0.718299	0.588457	0.173524
0	C	0.169802	0.0946791	0.321868
0	C	0.0687969	0.431834	0.824696
0	C	0.62088	0.924083	0.675394
0	H	0.803091	0.609607	0.164686
0	H	0.0851858	0.113312	0.331355
0	H	0.984206	0.410576	0.8337
0	H	0.705135	0.90438	0.665818
0	H	0.727412	0.523772	0.192186
0	H	0.160887	0.0290504	0.303499
0	H	0.0592059	0.496313	0.805992
0	H	0.630813	0.989728	0.693717
0	H	0.684816	0.659749	0.186884
0	H	0.199875	0.166524	0.308073
0	H	0.102062	0.360463	0.81135
0	H	0.590138	0.852655	0.689257
0	C	0.122932	0.568698	0.180712
0	C	0.766575	0.0652228	0.317708
0	C	0.668418	0.450277	0.817518
0	C	0.0254889	0.953521	0.679278
0	H	0.204975	0.555108	0.168048
0	H	0.690446	0.0492792	0.33304
0	H	0.586373	0.462907	0.830274
0	H	0.103147	0.968578	0.664541
0	H	0.0774638	0.63064	0.165567
0	H	0.8159	0.128083	0.331377
0	H	0.71527	0.389374	0.832794
0	H	0.975966	0.892072	0.664996
0	C	0.0199123	0.708816	0.0801703
0	C	0.841589	0.202745	0.418568
0	C	0.76693	0.310063	0.916101
0	C	0.94969	0.816112	0.580251
0	H	0.0237471	0.775666	0.0612581
0	H	0.823825	0.269114	0.436922
0	H	0.764707	0.244125	0.935331
0	H	0.966574	0.750933	0.561429
0	H	0.102726	0.66609	0.0787828
0	H	0.764024	0.151505	0.417919
0	H	0.683663	0.351816	0.91758
0	H	0.0270503	0.867601	0.580802
0	C	0.510847	0.733365	0.0537802
0	C	0.318072	0.251566	0.448455
0	C	0.281343	0.288203	0.943645
0	C	0.473356	0.769003	0.549107
0	H	0.439831	0.714533	0.0708241
0	H	0.406639	0.225863	0.444134
0	H	0.351057	0.306979	0.926135
0	H	0.385288	0.795458	0.553849
0	H	0.478637	0.718248	0.0281675
0	H	0.308172	0.256072	0.476024
0	H	0.31562	0.302741	0.969057
0	H	0.481754	0.764454	0.521495
0	C	0.952217	0.564681	0.0398044
0	C	0.922432	0.0861411	0.464835
0	C	0.835559	0.455875	0.955789
0	C	0.864664	0.934049	0.534907
0	H	0.876247	0.529475	0.0286111
0	H	0.996675	0.0408303	0.473432
0	H	0.911857	0.492201	0.966434
0	H	0.789162	0.978567	0.526889
0	H	0.0106277	0.497498	0.0451486
0	H	0.85056	0.0299244	0.464922
0	H	0.77587	0.52226	0.950704
0	H	0.935732	0.991178	0.534508
0	H	0.993172	0.615173	0.0205111
0	H	0.905241	0.149074	0.483592
0	H	0.796703	0.405251	0.975423
0	H	0.881304	0.871814	0.515893
0	C	0.142867	0.612646	0.216001
0	C	0.731983	0.109339	0.283446
0	C	0.648734	0.405089	0.782373
0	C	0.0563857	0.90748	0.713604
0	H	0.182724	0.549861	0.231955
0	H	0.684445	0.0469033	0.269317
0	H	0.609392	0.467472	0.766162
0	H	0.102339	0.969117	0.728508
0	H	0.0605733	0.630116	0.228518
0	H	0.808699	0.125278	0.267894
0	H	0.731104	0.386922	0.769986
0	H	0.978125	0.890806	0.728389
0	C	0.228531	0.4851	0.0809142
0	C	0.625339	0.987902	0.414541
0	C	0.56083	0.535789	0.916603
0	C	0.165445	0.0324819	0.583131
0	H	0.159261	0.541667	0.0747454
0	H	0.697504	0.0410256	0.420786
0	H	0.629892	0.479017	0.922773
0	H	0.0930796	0.979401	0.577093
0	H	0.310397	0.519734	0.0740324
0	H	0.545091	0.0299244	0.418629
0	H	0.478885	0.501625	0.923618
0	H	0.245556	0.990682	0.57862
0	H	0.225705	0.461704	0.107258
0	H	0.632687	0.956969	0.389004
0	H	0.563471	0.558815	0.890225
0	H	0.159311	0.0627944	0.608766
0	C	0.00619551	0.757436	0.114957
0	C	0.861343	0.252589	0.38423
0	C	0.780028	0.259896	0.881505
0	C	0.931898	0.764182	0.614398
0	H	0.993468	0.695044	0.134595
0	H	0.885428	0.19173	0.365093
0	H	0.787851	0.321767	0.861406
0	H	0.912958	0.824598	0.634237
0	H	0.0780823	0.810538	0.121595
0	H	0.787511	0.299795	0.375557
0	H	0.710279	0.203294	0.875677
0	H	0.00446159	0.713314	0.621955
0	C	0.816478	0.351392	0.0976072
0	C	0.047648	0.858019	0.414289
0	C	0.972198	0.670497	0.898866
0	C	0.741596	0.163256	0.58379
0	H	0.743563	0.374134	0.113349
0	H	0.126327	0.877476	0.400886
0	H	0.0448916	0.6476	0.883037
0	H	0.662679	0.143995	0.597117
0	H	0.811903	0.391557	0.0732769
0	H	0.0540787	0.880745	0.44069
0	H	0.976813	0.629961	0.923134
0	H	0.735095	0.141249	0.557333
0	H	0.896039	0.369016	0.11037
0	H	0.974478	0.895366	0.402202
0	H	0.892457	0.653349	0.886143
0	H	0.814429	0.125123	0.59582
0	C	0.492297	0.443634	0.175413
0	C	0.393916	0.94901	0.31862
0	C	0.295045	0.576572	0.822379
0	C	0.397204	0.070726	0.678789
0	H	0.557715	0.42644	0.194283
0	H	0.330179	0.935832	0.298927
0	H	0.229441	0.593796	0.803573
0	H	0.460936	0.0835049	0.698507
0	H	0.408143	0.445972	0.187206
0	H	0.479896	0.945211	0.308083
0	H	0.379018	0.573997	0.810473
0	H	0.311191	0.0746664	0.689307
0	C	0.18867	0.311374	0.249465
0	C	0.701537	0.805469	0.246301
0	C	0.598958	0.706974	0.748066
0	C	0.0909467	0.211674	0.751675
0	H	0.240854	0.3781	0.2595
0	H	0.650623	0.873284	0.236476
0	H	0.54614	0.640204	0.73835
0	H	0.142069	0.144329	0.761733
0	H	0.11707	0.294993	0.265972
0	H	0.772207	0.787709	0.229561
0	H	0.67027	0.722324	0.731355
0	H	0.019032	0.228469	0.768042
0	H	0.160757	0.328838	0.223822
0	H	0.73064	0.822093	0.271862
0	H	0.627323	0.690262	0.773707
0	H	0.0636241	0.194957	0.725949
0	C	0.187822	0.725302	0.00481248
0	C	0.62603	0.221448	0.499259
0	C	0.603466	0.296335	0.992799
0	C	0.164069	0.799064	0.498654
0	H	0.219083	0.739107	0.0304965
0	H	0.629936	0.194173	0.472941
0	H	0.571004	0.282453	0.967248
0	H	0.161482	0.82629	0.524989
0	H	0.10894	0.67633	0.00733652
0	H	0.701074	0.185744	0.511762
0	H	0.682187	0.345348	0.989917
0	H	0.0885687	0.834989	0.48646
0	C	0.544784	0.853067	0.057251
0	C	0.297732	0.363703	0.43295
0	C	0.246639	0.168698	0.940212
0	C	0.493481	0.656654	0.564491
0	H	0.580151	0.8696	0.0823364
0	H	0.312112	0.361753	0.405639
0	H	0.210696	0.152347	0.915196
0	H	0.480351	0.65861	0.591859
0	H	0.614117	0.872775	0.0392561
0	H	0.207597	0.388598	0.43587
0	H	0.177492	0.149237	0.958301
0	H	0.583254	0.631062	0.561208
0	C	0.214736	0.715585	0.216551
0	C	0.662369	0.213656	0.285286
0	C	0.576498	0.302361	0.782042
0	C	0.126162	0.803227	0.711891
0	H	0.271274	0.718219	0.238497
0	H	0.601454	0.219399	0.264433
0	H	0.517957	0.300676	0.760559
0	H	0.188432	0.798617	0.732415
0	H	0.263261	0.729679	0.193478
0	H	0.618599	0.22593	0.309265
0	H	0.530045	0.287456	0.805433
0	H	0.168391	0.7897	0.687741
0	C	0.274757	0.660313	0.985067
0	C	0.518582	0.178457	0.515592
0	C	0.517425	0.361317	0.012879
0	C	0.270898	0.841741	0.48189
0	H	0.291925	0.581498	0.99675
0	H	0.510114	0.090441	0.512363
0	H	0.499635	0.440073	0.0012356
0	H	0.279835	0.929712	0.485104
0	H	0.355307	0.704162	0.983059
0	H	0.442269	0.216353	0.5052
0	H	0.436995	0.317428	0.0152149
0	H	0.347565	0.803557	0.49195
0	H	0.24637	0.645035	0.959434
0	H	0.517118	0.195798	0.542471
0	H	0.546959	0.376705	0.0383887
0	H	0.271017	0.824473	0.455003
0	C	0.444925	0.928572	0.0507055
0	C	0.37481	0.447964	0.449079
0	C	0.346291	0.0928285	0.946619
0	C	0.415011	0.573054	0.548624
0	H	0.425236	0.936443	0.0238983
0	H	0.357593	0.459102	0.475946
0	H	0.36662	0.085187	0.973393
0	H	0.430985	0.561888	0.521692
0	H	0.368297	0.906356	0.0647955
0	H	0.465187	0.430048	0.444868
0	H	0.422662	0.11461	0.932342
0	H	0.324966	0.591574	0.55317
0	C	0.581225	0.851278	0.170168
0	C	0.295545	0.355509	0.326237
0	C	0.211129	0.169817	0.827545
0	C	0.491179	0.665119	0.671507
0	H	0.586949	0.778635	0.186218
0	H	0.289964	0.282126	0.310455
0	H	0.205017	0.242061	0.811343
0	H	0.496732	0.738312	0.687372
0	H	0.665676	0.880738	0.163456
0	H	0.211051	0.382791	0.333714
0	H	0.126803	0.140707	0.834549
0	H	0.575629	0.638711	0.663706
0	H	0.52987	0.835606	0.148046
0	H	0.350048	0.341817	0.347827
0	H	0.263315	0.18582	0.849478
0	H	0.435685	0.678574	0.650129
0	C	0.14145	0.21899	0.0202412
0	C	0.689352	0.724631	0.478689
0	C	0.649376	0.802461	0.976988
0	C	0.0997351	0.296218	0.519287
0	H	0.121517	0.304486	0.0133935
0	H	0.710593	0.808999	0.486407
0	H	0.669711	0.717051	0.983827
0	H	0.0782552	0.211799	0.511672
0	H	0.157	0.175181	0.996062
0	H	0.671197	0.67925	0.502171
0	H	0.634212	0.846272	0.00118079
0	H	0.117464	0.34138	0.495741
0	C	0.43766	0.0738629	0.237596
0	C	0.446848	0.574037	0.258931
0	C	0.351426	0.945822	0.759982
0	C	0.34376	0.444516	0.738956
0	H	0.449884	0.139993	0.256159
0	H	0.438629	0.638942	0.23976
0	H	0.338613	0.879704	0.741457
0	H	0.352737	0.379334	0.758014
0	H	0.489938	0.00408533	0.24611
0	H	0.394855	0.504374	0.250125
0	H	0.299476	0.0158451	0.751494
0	H	0.395509	0.514332	0.74778
0	C	0.784646	0.23443	0.204038
0	C	0.087584	0.732039	0.296664
0	C	0.00547891	0.784347	0.793468
0	C	0.70097	0.286177	0.701243
0	H	0.790955	0.278762	0.227824
0	H	0.0850797	0.773814	0.272369
0	H	0.9995	0.739321	0.769798
0	H	0.703376	0.243827	0.725446
0	H	0.696508	0.215828	0.198021
0	H	0.174708	0.714772	0.30416
0	H	0.0935978	0.802363	0.799673
0	H	0.613887	0.303881	0.693809
0	H	0.826178	0.278594	0.183799
0	H	0.0423521	0.778147	0.315775
0	H	0.962824	0.741252	0.813718
0	H	0.745986	0.240389	0.682019
0	C	0.961995	0.950688	0.229683
0	C	0.919498	0.443498	0.270814
0	C	0.827822	0.0669692	0.76687
0	C	0.870286	0.573018	0.727859
0	H	0.95355	0.864155	0.237557
0	H	0.927516	0.356212	0.263825
0	H	0.8364	0.153038	0.758556
0	H	0.861892	0.659924	0.735233
0	H	0.911209	0.999174	0.247799
0	H	0.973154	0.489732	0.252938
0	H	0.877962	0.0173774	0.748887
0	H	0.816958	0.525703	0.745558
0	C	0.549746	0.208856	0.102065
0	C	0.296904	0.720636	0.390323
0	C	0.239899	0.81222	0.895669
0	C	0.493129	0.300472	0.60725
0	H	0.614796	0.154249	0.0903625
0	H	0.229139	0.666009	0.400746
0	H	0.175067	0.867159	0.907324
0	H	0.56055	0.355592	0.596881
0	H	0.589058	0.291202	0.10203
0	H	0.257051	0.802577	0.388649
0	H	0.200361	0.729982	0.895823
0	H	0.533471	0.218705	0.608778
0	C	0.940093	0.00376171	0.0547855
0	C	0.889834	0.508685	0.443333
0	C	0.849877	0.0179425	0.9421
0	C	0.900275	0.512449	0.555032
0	H	0.930879	0.915233	0.0550202
0	H	0.897687	0.420284	0.441979
0	H	0.859158	0.106466	0.941901
0	H	0.892718	0.600853	0.556451
0	C	0.933404	0.885464	0.170708
0	C	0.940461	0.382682	0.330426
0	C	0.8568	0.134374	0.825583
0	C	0.849286	0.635987	0.668447
0	H	0.983525	0.814084	0.17732
0	H	0.895787	0.308545	0.323318
0	H	0.806492	0.20551	0.818805
0	H	0.89409	0.709912	0.675717
0	C	0.160591	0.834853	0.988322
0	C	0.63238	0.345912	0.50108
0	C	0.63157	0.186818	0.00918973
0	C	0.157244	0.674626	0.496843
0	H	0.234782	0.890228	0.989316
0	H	0.558351	0.383318	0.48868
0	H	0.557329	0.131448	0.00858676
0	H	0.231332	0.636961	0.509133
0	H	0.145074	0.823921	0.961209
0	H	0.626967	0.37364	0.527425
0	H	0.648683	0.19786	0.0362187
0	H	0.162132	0.646949	0.470487
0	C	0.810113	0.0727804	0.154124
0	C	0.0502719	0.576415	0.348101
0	C	0.980529	0.94795	0.842746
0	C	0.739098	0.443042	0.650172
0	H	0.764246	0.146432	0.147097
0	H	0.0906791	0.652677	0.355326
0	H	0.0265659	0.874636	0.850008
0	H	0.698556	0.367074	0.642721
0	C	0.780039	0.00942784	0.0953358
0	C	0.0656091	0.519931	0.408094
0	C	0.00955261	0.0125345	0.901423
0	C	0.724553	0.501274	0.590304
0	H	0.756596	0.930011	0.0840058
0	H	0.0930202	0.443092	0.4206
0	H	0.0324773	0.0921934	0.91268
0	H	0.697763	0.578531	0.577939
0	H	0.700383	0.0588629	0.0958766
0	H	0.141992	0.574493	0.408706
0	H	0.0893955	0.963369	0.901041
0	H	0.647918	0.447067	0.589477
0	C	0.313468	0.122492	0.0422787
0	C	0.514963	0.635137	0.455783
0	C	0.477035	0.89872	0.955134
0	C	0.274455	0.385836	0.541956
0	H	0.287025	0.0521465	0.0275633
0	H	0.536621	0.564974	0.471241
0	H	0.503732	0.969129	0.969778
0	H	0.252613	0.455985	0.526508
0	C	0.276103	0.304163	0.0621886
0	C	0.56231	0.81407	0.435402
0	C	0.513987	0.716926	0.935279
0	C	0.227406	0.206867	0.56241
0	C	0.466496	0.219351	0.194253
0	C	0.41367	0.722578	0.301114
0	C	0.321929	0.800654	0.803393
0	C	0.37728	0.29675	0.696561
0	H	0.434152	0.277662	0.212374
0	H	0.453109	0.778887	0.28363
0	H	0.353441	0.742022	0.785244
0	H	0.338597	0.239998	0.714055
0	C	0.114199	0.0916119	0.238038
0	C	0.770474	0.585385	0.25966
0	C	0.67478	0.926673	0.75892
0	C	0.0201699	0.431844	0.738897
0	H	0.0475724	0.152257	0.240732
0	H	0.838435	0.644269	0.256316
0	H	0.741006	0.86579	0.75592
0	H	0.952626	0.372723	0.742542
0	C	0.284823	0.935254	0.228235
0	C	0.59623	0.434347	0.271416
0	C	0.505105	0.0834967	0.769419
0	C	0.193477	0.583361	0.726565
0	H	0.351968	0.876834	0.22299
0	H	0.527715	0.378254	0.277432
0	H	0.438297	0.142042	0.774913
0	H	0.261634	0.639648	0.720348
0	C	0.0590748	0.889493	0.00459496
0	C	0.740829	0.387349	0.484956
0	C	0.732145	0.132232	0.992411
0	C	0.0489146	0.633472	0.513105
0	H	0.98977	0.905743	0.986848
0	H	0.813956	0.385444	0.501993
0	H	0.802496	0.116079	0.00980586
0	H	0.975668	0.635079	0.496121
0	H	0.0266378	0.843465	0.0264965
0	H	0.761798	0.343741	0.461447
0	H	0.763266	0.178279	0.970339
0	H	0.0280843	0.677531	0.536542
0	C	0.0260647	0.0534619	0.0362196
0	C	0.800008	0.558179	0.460358
0	C	0.764205	0.968173	0.960789
0	C	0.98977	0.462848	0.537865
0	C	0.170745	0.906673	0.226186
0	C	0.709548	0.403552	0.274015
0	C	0.619349	0.111582	0.77128
0	C	0.0799893	0.613625	0.724114
0	C	0.882274	0.180075	0.0749983
0	C	0.957798	0.686541	0.427748
0	C	0.907304	0.841754	0.921724
0	C	0.83203	0.334626	0.570544
0	C	0.373146	0.301396	0.0820755
0	C	0.468902	0.813078	0.41404
0	C	0.416657	0.719652	0.91552
0	C	0.321062	0.207869	0.583676
0	H	0.395602	0.368639	0.0985604
0	H	0.451798	0.880022	0.396847
0	H	0.393912	0.652382	0.899081
0	H	0.338417	0.140922	0.60085
0	C	0.443122	0.209798	0.0817988
0	C	0.396816	0.723047	0.413394
0	C	0.346729	0.811285	0.915837
0	C	0.393084	0.297937	0.584241
0	C	0.890231	0.899753	0.138468
0	C	0.974026	0.401486	0.363426
0	C	0.899823	0.121141	0.857891
0	C	0.815697	0.618267	0.635391
0	C	0.410954	0.119903	0.0620012
0	C	0.42137	0.634097	0.434497
0	C	0.379314	0.901302	0.935522
0	C	0.368291	0.386849	0.56315
0	C	0.535513	0.0649665	0.146643
0	C	0.323635	0.573838	0.347335
0	C	0.255128	0.955761	0.851057
0	C	0.46553	0.446601	0.650373
0	H	0.558334	0.00502433	0.12776
0	H	0.291454	0.516253	0.365726
0	H	0.233266	0.0159488	0.869972
0	H	0.497045	0.504587	0.632004
0	C	0.91571	0.965026	0.195068
0	C	0.960348	0.461052	0.305895
0	C	0.874706	0.0541715	0.801471
0	C	0.829256	0.5569	0.692733
0	C	0.970538	0.229655	0.0575061
0	C	0.867333	0.736191	0.44419
0	C	0.819327	0.792124	0.939342
0	C	0.922181	0.284895	0.553965
0	H	0.985745	0.316885	0.0592093
0	H	0.855734	0.823984	0.443636
0	H	0.804108	0.704912	0.937631
0	H	0.933582	0.197085	0.554472
0	C	0.0840053	0.984056	0.231306
0	C	0.798127	0.478317	0.267955
0	C	0.705621	0.0340346	0.76569
0	C	0.99185	0.538625	0.730488
0	C	0.855101	0.0595436	0.186118
0	C	0.0152285	0.558411	0.315234
0	C	0.935735	0.960142	0.810703
0	C	0.774025	0.459998	0.683094
0	C	0.314996	0.0422599	0.235899
0	C	0.568643	0.540679	0.262091
0	C	0.474296	0.976771	0.761599
0	C	0.221736	0.477277	0.735994
0	C	0.513348	0.0339691	0.179632
0	C	0.356996	0.539719	0.315488
0	C	0.277116	0.986483	0.818036
0	C	0.432214	0.480187	0.68228
0	C	0.245368	0.215373	0.0417508
0	C	0.586924	0.725239	0.456519
0	C	0.545075	0.805785	0.955641
0	C	0.202531	0.295689	0.541309
0	C	0.228437	0.119815	0.240722
0	C	0.657018	0.615628	0.256393
0	C	0.560353	0.898898	0.756548
0	C	0.133838	0.402061	0.741957
0	C	0.826337	0.992639	0.129867
0	C	0.0304034	0.498041	0.372715
0	C	0.963697	0.0286389	0.866807
0	C	0.759378	0.522092	0.625779
0	C	0.475041	0.109972	0.203492
0	C	0.403933	0.613037	0.292165
0	C	0.314225	0.910056	0.794135
0	C	0.386317	0.406267	0.705601
0	C	0.494569	0.250961	0.161782
0	C	0.377227	0.757147	0.332586
0	C	0.294036	0.769346	0.835903
0	C	0.413545	0.262762	0.665013
0	C	0.0438676	0.166765	0.0379889
0	C	0.787275	0.672382	0.460937
0	C	0.746417	0.854886	0.959031
0	C	0.0021585	0.348632	0.537169
0	C	0.867509	0.0659147	0.0744497
0	C	0.970096	0.572107	0.426879
0	C	0.922146	0.955901	0.922306
0	C	0.81998	0.449074	0.571483
0	C	0.526599	0.174	0.137303
0	C	0.332504	0.683259	0.35623
0	C	0.262985	0.84665	0.860386
0	C	0.457486	0.337195	0.6414
