#******************************************
#
# CIF file created by Zeo++
# Zeo++ is an open source package to
# analyze microporous materials
#
#*******************************************

_cell_length_a		5.34272(0)
_cell_length_b		17.3437(0)
_cell_length_c		14.0464(0)
_cell_angle_alpha		90(0)
_cell_angle_beta		84.2719(0)
_cell_angle_gamma		90(0)

_symmetry_space_group_name_H-M		'P1'
_symmetry_Int_Tables_number		1
_symmetry_cell_setting		Monoclinic

loop_
_symmetry_equiv_pos_as_xyz
'+x,+y,+z'

loop_
_atom_site_label
_atom_site_type_symbol
_atom_site_fract_x
_atom_site_fract_y
_atom_site_fract_z
0	S	0.170313	0.476341	0.372663
0	S	0.617235	0.971324	0.113875
0	S	0.530726	0.524731	0.609102
0	S	0.0833335	0.0298071	0.867979
0	S	0.186926	0.801866	0.969289
0	S	0.508558	0.30092	0.510037
0	S	0.514572	0.199204	0.0125272
0	S	0.19291	0.700136	0.47182
0	C	0.321558	0.693825	0.818481
0	C	0.342019	0.192458	0.656808
0	C	0.379649	0.307221	0.163336
0	C	0.359186	0.808579	0.324986
0	C	0.256965	0.737944	0.883564
0	C	0.4189	0.236932	0.593668
0	C	0.444289	0.263126	0.0982364
0	C	0.282415	0.764042	0.388068
0	C	0.984391	0.749812	0.0597847
0	C	0.734962	0.249376	0.427445
0	C	0.717	0.251293	0.922023
0	C	0.966339	0.751717	0.554323
0	H	0.916083	0.794214	0.113293
0	H	0.812835	0.293502	0.375157
0	H	0.785464	0.206892	0.86853
0	H	0.888168	0.707599	0.606464
0	H	0.815287	0.727109	0.0296472
0	H	0.89528	0.228179	0.46424
0	H	0.885985	0.274035	0.952138
0	H	0.806246	0.772978	0.517419
0	C	0.132131	0.686479	0.103875
0	C	0.603315	0.184552	0.379341
0	C	0.569066	0.314572	0.877909
0	C	0.0979581	0.816489	0.602547
0	H	0.310428	0.709722	0.127125
0	H	0.429844	0.206198	0.350564
0	H	0.390783	0.291279	0.854696
0	H	0.271148	0.794734	0.631532
0	H	0.189856	0.641876	0.0494581
0	H	0.538716	0.139979	0.432981
0	H	0.511358	0.359164	0.93226
0	H	0.16315	0.861047	0.548911
0	C	0.977393	0.649005	0.189736
0	C	0.775049	0.147308	0.297912
0	C	0.723662	0.352022	0.792002
0	C	0.925942	0.853797	0.683851
0	H	0.93169	0.692787	0.24636
0	H	0.826106	0.190326	0.240859
0	H	0.769319	0.308234	0.735396
0	H	0.874359	0.81078	0.740844
0	H	0.793743	0.628526	0.169096
0	H	0.955417	0.128845	0.323517
0	H	0.9074	0.372574	0.812632
0	H	0.745869	0.872375	0.658048
0	C	0.124202	0.582004	0.229171
0	C	0.640736	0.0783909	0.256833
0	C	0.576765	0.419003	0.752556
0	C	0.0603599	0.922639	0.725096
0	H	0.304985	0.604079	0.25168
0	H	0.458514	0.0979563	0.233089
0	H	0.396037	0.396907	0.730091
0	H	0.242132	0.902985	0.749012
0	H	0.177737	0.539932	0.171178
0	H	0.5908	0.0355506	0.314311
0	H	0.52327	0.4611	0.810535
0	H	0.110878	0.965462	0.66763
0	C	0.971657	0.542015	0.312145
0	C	0.802559	0.0407939	0.174503
0	C	0.729234	0.458953	0.669528
0	C	0.898223	0.960309	0.807295
0	H	0.805909	0.511673	0.288874
0	H	0.973	0.0134744	0.198392
0	H	0.895227	0.489241	0.692747
0	H	0.727909	0.987535	0.783335
0	H	0.898013	0.583827	0.368278
0	H	0.869382	0.0833921	0.118402
0	H	0.802523	0.41714	0.613366
0	H	0.831228	0.917677	0.863425
0	C	0.245796	0.409166	0.291602
0	C	0.525688	0.907951	0.19791
0	C	0.455332	0.591876	0.690214
0	C	0.1751	0.093154	0.783905
0	C	0.393405	0.64146	0.74904
0	C	0.254089	0.140956	0.725134
0	C	0.30766	0.359576	0.232782
0	C	0.446913	0.860055	0.256594
