#******************************************
#
# CIF file created by Zeo++
# Zeo++ is an open source package to
# analyze microporous materials
#
#*******************************************

_cell_length_a		29.6082(0)
_cell_length_b		29.6114(0)
_cell_length_c		11.2668(0)
_cell_angle_alpha		90(0)
_cell_angle_beta		90(0)
_cell_angle_gamma		119.98(0)

_symmetry_space_group_name_H-M		'P1'
_symmetry_Int_Tables_number		1
_symmetry_cell_setting		Monoclinic

loop_
_symmetry_equiv_pos_as_xyz
'+x,+y,+z'

loop_
_atom_site_label
_atom_site_type_symbol
_atom_site_fract_x
_atom_site_fract_y
_atom_site_fract_z
0	N	0.450933	0.800024	0.950016
0	N	0.199619	0.65034	0.920232
0	N	0.349406	0.549193	0.922724
0	N	0.117425	0.133407	0.263131
0	N	0.866322	0.984023	0.264325
0	N	0.0157278	0.882289	0.264206
0	N	0.784104	0.46677	0.597467
0	N	0.533025	0.317293	0.597415
0	N	0.682593	0.215721	0.59743
0	N	0.495064	0.861169	0.164328
0	N	0.143126	0.633516	0.151075
0	N	0.366149	0.509092	0.152297
0	N	0.158478	0.191493	0.488881
0	N	0.808067	0.966925	0.489545
0	N	0.0328088	0.841119	0.489491
0	N	0.825334	0.524995	0.822745
0	N	0.474791	0.300275	0.822688
0	N	0.699587	0.17454	0.822665
0	N	0.366791	0.843113	0.629606
0	N	0.156319	0.523783	0.627372
0	N	0.475877	0.632278	0.627962
0	N	0.0339733	0.176679	0.961999
0	N	0.823026	0.857192	0.9623
0	N	0.142438	0.965825	0.962217
0	N	0.700573	0.510039	0.295541
0	N	0.489809	0.190503	0.295513
0	N	0.809327	0.299202	0.29555
0	N	0.252804	0.773801	0.617348
0	N	0.225788	0.479146	0.617388
0	N	0.520035	0.746079	0.620883
0	N	0.920062	0.107231	0.952048
0	N	0.892458	0.812632	0.952168
0	N	0.187054	0.0797448	0.951973
0	N	0.586573	0.440563	0.285599
0	N	0.559263	0.145923	0.285571
0	N	0.853865	0.4132	0.285656
0	C	0.387463	0.687503	0.937595
0	C	0.312423	0.699979	0.936651
0	C	0.300007	0.612513	0.931334
0	C	0.0540646	0.0207499	0.26911
0	C	0.979021	0.0332485	0.269141
0	C	0.966536	0.945741	0.269333
0	C	0.720762	0.354151	0.602272
0	C	0.64566	0.366539	0.602269
0	C	0.633299	0.279081	0.602266
0	H	0.429758	0.704162	0.940285
0	H	0.295692	0.725564	0.938236
0	H	0.274384	0.570219	0.929376
0	H	0.0963605	0.0373982	0.269779
0	H	0.962358	0.0588834	0.269869
0	H	0.940892	0.903452	0.270179
0	H	0.763082	0.37088	0.603034
0	H	0.628913	0.392119	0.603033
0	H	0.60773	0.236767	0.603023
0	C	0.366786	0.720936	0.939557
0	C	0.279027	0.645903	0.93286
0	C	0.354099	0.63317	0.933569
0	C	0.0333873	0.0541843	0.269145
0	C	0.945575	0.979154	0.269403
0	C	0.020644	0.966394	0.269387
0	C	0.700033	0.387546	0.602394
0	C	0.612269	0.312434	0.602384
0	C	0.687414	0.29979	0.602389
0	C	0.400674	0.778443	0.944262
0	C	0.221494	0.622258	0.934931
0	C	0.377669	0.599208	0.935824
0	C	0.0672532	0.111701	0.272073
0	C	0.888053	0.955541	0.272472
0	C	0.0442536	0.93247	0.272479
0	C	0.733898	0.44507	0.605419
0	C	0.554737	0.288788	0.605391
0	C	0.711085	0.265918	0.605403
0	H	0.378871	0.799778	0.940806
0	H	0.200411	0.579736	0.951509
0	H	0.420304	0.620643	0.9509
0	H	0.0455435	0.132883	0.282905
0	H	0.866847	0.912622	0.282553
0	H	0.0871579	0.954126	0.282685
0	H	0.712151	0.466251	0.615397
0	H	0.533562	0.245874	0.615374
0	H	0.754002	0.287642	0.615404
0	C	0.482427	0.857816	0.946899
0	C	0.14195	0.624264	0.92967
0	C	0.375445	0.517536	0.931185
0	C	0.148918	0.191139	0.268541
0	C	0.808561	0.957756	0.269347
0	C	0.041934	0.85074	0.269266
0	C	0.815633	0.524513	0.602564
0	C	0.475276	0.291087	0.602516
0	C	0.708804	0.184173	0.60256
0	H	0.457897	0.87673	0.95963
0	H	0.123326	0.580894	0.942879
0	H	0.418828	0.542196	0.9444
0	H	0.124217	0.209847	0.281689
0	H	0.789915	0.91437	0.282447
0	H	0.085341	0.875374	0.282333
0	H	0.790971	0.543254	0.615646
0	H	0.456548	0.247697	0.615598
0	H	0.752196	0.208809	0.615686
0	C	0.523399	0.876685	0.0499771
0	C	0.126429	0.646774	0.0385943
0	C	0.352939	0.479273	0.0396569
0	C	0.18789	0.207757	0.375725
0	C	0.7918	0.980064	0.376382
0	C	0.0196159	0.81172	0.376334
0	C	0.854702	0.541222	0.70956
0	C	0.458555	0.313434	0.70953
0	C	0.68641	0.145121	0.709551
0	H	0.549136	0.859289	0.0355439
0	H	0.144126	0.689955	0.02496
0	H	0.309762	0.453778	0.025958
0	H	0.213461	0.190156	0.361885
0	H	0.809345	0.0232274	0.362538
0	H	0.976432	0.786163	0.362593
0	H	0.880275	0.523621	0.695593
0	H	0.476146	0.356594	0.695593
0	H	0.643241	0.119605	0.695598
0	C	0.499321	0.828139	0.231751
0	C	0.172745	0.670394	0.223824
0	C	0.329218	0.502127	0.224572
0	C	0.164721	0.1607	0.559953
0	C	0.839057	0.00396469	0.560332
0	C	0.995768	0.834989	0.560411
0	C	0.831507	0.494118	0.893675
0	C	0.505635	0.337303	0.893674
0	C	0.662543	0.168473	0.893485
0	H	0.52192	0.808658	0.211401
0	H	0.189608	0.712586	0.207412
0	H	0.287018	0.477094	0.207799
0	H	0.189083	0.142853	0.542283
0	H	0.857025	0.0461485	0.542384
0	H	0.953585	0.810692	0.542631
0	H	0.855815	0.476232	0.875804
0	H	0.523485	0.379483	0.87586
0	H	0.62036	0.144244	0.875523
0	C	0.473353	0.815092	0.349273
0	C	0.184881	0.657568	0.342729
0	C	0.342047	0.527171	0.34338
0	C	0.13947	0.148273	0.678473
0	C	0.851515	0.991146	0.678824
0	C	0.00857849	0.860267	0.678884
0	C	0.806222	0.481684	0.0121489
0	C	0.518083	0.32445	0.0121364
0	C	0.675377	0.193717	0.0120097
0	C	0.487451	0.789143	0.432844
0	C	0.210208	0.697751	0.426599
0	C	0.301863	0.512405	0.427182
0	C	0.154081	0.122727	0.762245
0	C	0.877119	0.0313076	0.762514
0	C	0.968415	0.84565	0.762623
0	C	0.820808	0.45613	0.0959356
0	C	0.543631	0.364572	0.0959294
0	C	0.63524	0.179112	0.0957932
0	H	0.515713	0.777019	0.410231
0	H	0.222346	0.738081	0.403513
0	H	0.261516	0.484232	0.404151
0	H	0.182296	0.110576	0.739372
0	H	0.889302	0.0716609	0.739573
0	H	0.928081	0.817423	0.739761
0	H	0.849023	0.443991	0.0730349
0	H	0.555755	0.404912	0.0730358
0	H	0.594902	0.150922	0.0728469
0	C	0.46585	0.779289	0.547029
0	C	0.219528	0.686342	0.541641
0	C	0.313287	0.533217	0.54215
0	C	0.133063	0.113207	0.877012
0	C	0.886618	0.0197993	0.877291
0	C	0.979893	0.86667	0.877398
0	C	0.799765	0.446579	0.210682
0	C	0.553188	0.353092	0.210686
0	C	0.646715	0.200073	0.210616
0	C	0.429851	0.795169	0.577676
0	C	0.203627	0.634523	0.573113
0	C	0.365109	0.569083	0.57365
0	C	0.0971585	0.129131	0.908358
0	C	0.870665	0.967984	0.908697
0	C	0.0317	0.902599	0.908726
0	C	0.763832	0.462485	0.241943
0	C	0.537294	0.301268	0.241942
0	C	0.698539	0.235966	0.241933
0	H	0.413683	0.788799	0.667367
0	H	0.209759	0.624997	0.663381
0	H	0.374638	0.584762	0.66388
0	H	0.0813986	0.122926	0.998513
0	H	0.876875	0.958437	0.998834
0	H	0.041248	0.918384	0.998832
0	H	0.748027	0.456253	0.33205
0	H	0.543522	0.291684	0.332052
0	H	0.708101	0.251719	0.332084
0	C	0.414974	0.820067	0.493487
0	C	0.179039	0.594529	0.489394
0	C	0.40511	0.584412	0.489938
0	C	0.0819336	0.153827	0.824485
0	C	0.845924	0.928063	0.824891
0	C	0.0716117	0.917831	0.824837
0	C	0.74861	0.487193	0.158062
0	C	0.512591	0.261357	0.158056
0	C	0.738465	0.251198	0.158049
0	C	0.436653	0.829887	0.379084
0	C	0.169725	0.606149	0.374148
0	C	0.393473	0.563448	0.374736
0	C	0.103058	0.163297	0.709479
0	C	0.836434	0.939714	0.709897
0	C	0.0599918	0.896696	0.709855
0	C	0.769781	0.496683	0.0430725
0	C	0.503083	0.273026	0.0430692
0	C	0.726805	0.230086	0.0430158
0	H	0.425681	0.849682	0.312912
0	H	0.150113	0.575187	0.308376
0	H	0.424409	0.574766	0.308886
0	H	0.0917712	0.182954	0.643667
0	H	0.816709	0.908743	0.64421
0	H	0.0909625	0.908007	0.644103
0	H	0.758552	0.516327	0.977092
0	H	0.483421	0.242156	0.977115
0	H	0.757684	0.241295	0.977063
0	C	0.376785	0.837048	0.520865
0	C	0.16211	0.539478	0.518316
0	C	0.460185	0.622455	0.518894
0	C	0.0438215	0.170788	0.852989
0	C	0.828928	0.872986	0.853342
0	C	0.126675	0.955926	0.853249
0	C	0.71047	0.504142	0.186565
0	C	0.495649	0.206283	0.186538
0	C	0.793541	0.28929	0.186579
0	H	0.359055	0.843912	0.441479
0	H	0.155091	0.514565	0.439449
0	H	0.485087	0.640354	0.440018
0	H	0.0259039	0.177719	0.774045
0	H	0.821949	0.848156	0.774352
0	H	0.151512	0.973767	0.774249
0	H	0.692604	0.511082	0.107546
0	H	0.488666	0.181479	0.107513
0	H	0.818347	0.307113	0.107552
0	C	0.328506	0.86059	0.652425
0	C	0.138926	0.4681	0.651282
0	C	0.531567	0.670467	0.652112
0	C	0.995691	0.194104	0.985605
0	C	0.805567	0.801481	0.985704
0	C	0.198151	0.00400745	0.98565
0	C	0.662296	0.527477	0.319188
0	C	0.472356	0.134798	0.31914
0	C	0.865032	0.33744	0.319185
0	H	0.315051	0.871289	0.569027
0	H	0.128241	0.443747	0.568213
0	H	0.555926	0.684383	0.569099
0	H	0.982058	0.204739	0.902368
0	H	0.794954	0.777269	0.9024
0	H	0.222373	0.0175628	0.902339
0	H	0.648631	0.538126	0.236049
0	H	0.4617	0.1105	0.235997
0	H	0.889334	0.351089	0.23604
0	C	0.279368	0.813852	0.711242
0	C	0.185567	0.465687	0.710801
0	C	0.533935	0.71924	0.712972
0	C	0.946754	0.147496	0.045232
0	C	0.852158	0.799055	0.0453065
0	C	0.200574	0.0530065	0.0452129
0	C	0.6133	0.480866	0.378792
0	C	0.518963	0.13238	0.378764
0	C	0.867411	0.386434	0.378834
0	H	0.292984	0.79946	0.788037
0	H	0.199785	0.49367	0.787612
0	H	0.506193	0.705174	0.790243
0	H	0.960551	0.133374	0.122218
0	H	0.866284	0.826942	0.12233
0	H	0.172663	0.0392931	0.122179
0	H	0.62711	0.466724	0.455693
0	H	0.533119	0.160346	0.455628
0	H	0.839444	0.372623	0.455695
0	C	0.245547	0.727335	0.63357
0	C	0.272224	0.518346	0.633849
0	C	0.480534	0.752773	0.63814
0	C	0.912885	0.0608408	0.968883
0	C	0.938834	0.851858	0.968988
0	C	0.147818	0.0869172	0.968635
0	C	0.579447	0.394173	0.302263
0	C	0.605625	0.18522	0.302193
0	C	0.814566	0.420287	0.302253
0	H	0.256749	0.713805	0.714171
0	H	0.285653	0.543109	0.714368
0	H	0.455546	0.740763	0.718183
0	H	0.924304	0.0475145	0.0494136
0	H	0.952132	0.876591	0.0495256
0	H	0.122999	0.0754476	0.0490522
0	H	0.590937	0.380854	0.382719
0	H	0.618903	0.210025	0.382649
0	H	0.789723	0.408747	0.38264
0	C	0.511826	0.875999	0.830058
0	C	0.120717	0.635303	0.817418
0	C	0.364342	0.485518	0.818501
0	C	0.180222	0.211312	0.154673
0	C	0.788448	0.968854	0.155312
0	C	0.030774	0.819494	0.155284
0	C	0.846868	0.544625	0.488589
0	C	0.455135	0.302198	0.488562
0	C	0.697703	0.152931	0.488625
0	C	0.542925	0.855981	0.788539
0	C	0.140118	0.686475	0.776917
0	C	0.31316	0.453855	0.777965
0	C	0.211774	0.191694	0.11386
0	C	0.808126	0.0199877	0.114272
0	C	0.979605	0.787988	0.114526
0	C	0.878393	0.52498	0.447741
0	C	0.474765	0.353348	0.447685
0	C	0.646544	0.12142	0.447805
0	H	0.543244	0.823876	0.835072
0	H	0.172506	0.71887	0.822849
0	H	0.280775	0.453855	0.823981
0	H	0.211852	0.159392	0.16004
0	H	0.840442	0.0523795	0.160387
0	H	0.947248	0.787909	0.160807
0	H	0.878496	0.492674	0.493876
0	H	0.507076	0.385747	0.493797
0	H	0.61414	0.12134	0.493915
0	C	0.5739	0.877408	0.687606
0	C	0.11801	0.695983	0.67728
0	C	0.303616	0.422309	0.678185
0	C	0.243169	0.213549	0.0137602
0	C	0.786296	0.0294863	0.0140597
0	C	0.970049	0.756627	0.0143497
0	C	0.909789	0.546838	0.347657
0	C	0.452877	0.362876	0.347634
0	C	0.637013	0.0899881	0.347799
0	H	0.597955	0.8616	0.655357
0	H	0.133502	0.735828	0.645365
0	H	0.263757	0.398008	0.646305
0	H	0.267438	0.197965	0.981781
0	H	0.801914	0.069311	0.981922
0	H	0.930195	0.732379	0.982443
0	H	0.934027	0.531211	0.315666
0	H	0.46848	0.402722	0.315623
0	H	0.597158	0.0657384	0.315815
0	C	0.574125	0.918968	0.628301
0	C	0.0762783	0.654526	0.618704
0	C	0.34505	0.422026	0.619438
0	C	0.243388	0.255187	0.954825
0	C	0.744631	0.988084	0.955229
0	C	0.0114468	0.756403	0.95529
0	C	0.910038	0.588504	0.288784
0	C	0.411194	0.32147	0.288823
0	C	0.678427	0.0896956	0.288991
0	H	0.599107	0.936431	0.551108
0	H	0.0584399	0.661936	0.54211
0	H	0.337607	0.396818	0.542762
0	H	0.268504	0.272869	0.877949
0	H	0.726971	0.995502	0.878303
0	H	0.0039953	0.731329	0.878362
0	H	0.935178	0.60619	0.211967
0	H	0.393479	0.328921	0.212045
0	H	0.670969	0.0645027	0.212267
0	C	0.54217	0.938149	0.667972
0	C	0.0573034	0.603429	0.658216
0	C	0.396168	0.454096	0.658907
0	C	0.211321	0.274242	0.994395
0	C	0.725509	0.936995	0.995
0	C	0.0625666	0.788416	0.994821
0	C	0.877964	0.607557	0.328314
0	C	0.39215	0.270364	0.328375
0	C	0.729543	0.121762	0.328474
0	H	0.542075	0.970273	0.620965
0	H	0.0249739	0.571194	0.611809
0	H	0.428392	0.454012	0.612372
0	H	0.211346	0.306479	0.947714
0	H	0.693247	0.904795	0.948403
0	H	0.0947551	0.78837	0.948054
0	H	0.877964	0.639799	0.28168
0	H	0.359895	0.238129	0.281794
0	H	0.761772	0.121723	0.281855
0	C	0.510676	0.916489	0.76791
0	C	0.0796097	0.59362	0.757009
0	C	0.406008	0.486137	0.757831
0	C	0.179426	0.252182	0.0935856
0	C	0.74754	0.927201	0.0943217
0	C	0.0724169	0.820268	0.0940906
0	C	0.846063	0.585493	0.427491
0	C	0.414239	0.26054	0.427549
0	C	0.739372	0.15369	0.427602
0	H	0.485728	0.931532	0.797937
0	H	0.0648029	0.553702	0.787168
0	H	0.44594	0.511224	0.787943
0	H	0.154334	0.267027	0.123701
0	H	0.732622	0.887289	0.124579
0	H	0.112351	0.845311	0.124194
0	H	0.820982	0.600371	0.457536
0	H	0.399354	0.220598	0.457647
0	H	0.779318	0.178747	0.457672
0	C	0.555913	0.935878	0.0470733
0	C	0.0671734	0.62082	0.0417631
0	C	0.378946	0.44601	0.0423226
0	C	0.220928	0.266997	0.376738
0	C	0.732557	0.953894	0.377508
0	C	0.0458052	0.77866	0.377107
0	C	0.887711	0.600468	0.710488
0	C	0.399304	0.287231	0.710446
0	C	0.712557	0.112008	0.710495
0	C	0.607431	0.959711	0.00570762
0	C	0.0431033	0.648649	0.00280317
0	C	0.351141	0.39417	0.00308761
0	C	0.272733	0.290974	0.337215
0	C	0.708561	0.981748	0.338203
0	C	0.0179957	0.726894	0.33741
0	C	0.939493	0.624437	0.670837
0	C	0.37533	0.315051	0.670798
0	C	0.684695	0.0602371	0.67081
0	H	0.624565	0.936173	0.978931
0	H	0.0664878	0.689258	0.975502
0	H	0.310525	0.376955	0.975789
0	H	0.290006	0.267551	0.31042
0	H	0.731971	0.0224081	0.311165
0	H	0.977295	0.709665	0.310674
0	H	0.956752	0.600999	0.644125
0	H	0.398767	0.355736	0.644075
0	H	0.644019	0.0430599	0.644057
0	C	0.63695	0.0140005	0.997494
0	C	0.988749	0.624079	0.997137
0	C	0.375751	0.364415	0.99717
0	C	0.302367	0.345302	0.33041
0	C	0.65422	0.957151	0.331886
0	C	0.0426924	0.697249	0.330354
0	C	0.969111	0.678761	0.663866
0	C	0.321002	0.290381	0.663818
0	C	0.709339	0.0305394	0.663802
0	H	0.676897	0.0324537	0.96442
0	H	0.970149	0.645635	0.965341
0	H	0.354216	0.324292	0.965224
0	H	0.342492	0.363848	0.298462
0	H	0.635666	0.97874	0.299981
0	H	0.0211085	0.657151	0.2983
0	H	0.00921317	0.697317	0.631697
0	H	0.302452	0.311944	0.631723
0	H	0.687777	0.990463	0.631547
0	C	0.615329	0.0445963	0.0312097
0	C	0.958233	0.571942	0.0313929
0	C	0.427897	0.386009	0.0314356
0	C	0.280676	0.375864	0.363958
0	C	0.623666	0.904968	0.36575
0	C	0.0949418	0.718902	0.363839
0	C	0.947425	0.709321	0.697444
0	C	0.290433	0.23815	0.697344
0	C	0.761568	0.0521352	0.6974
0	H	0.638611	0.0869026	0.0252964
0	H	0.91588	0.552915	0.0264641
0	H	0.446953	0.362702	0.0264173
0	H	0.303932	0.418206	0.358465
0	H	0.581326	0.885974	0.360651
0	H	0.114039	0.695644	0.358196
0	H	0.970689	0.751646	0.691884
0	H	0.248097	0.219096	0.691744
0	H	0.78058	0.028809	0.691789
0	C	0.564246	0.0209393	0.0742337
0	C	0.982115	0.544562	0.0734324
0	C	0.455265	0.437224	0.0736472
0	C	0.229461	0.352072	0.406183
0	C	0.647469	0.877473	0.407503
0	C	0.122352	0.77008	0.406267
0	C	0.896204	0.685547	0.739629
0	C	0.31421	0.210697	0.739556
0	C	0.789056	0.103341	0.739643
0	H	0.547766	0.0448646	0.102352
0	H	0.958292	0.504292	0.10253
0	H	0.495543	0.453636	0.102717
0	H	0.212966	0.375949	0.434657
0	H	0.623599	0.837115	0.435911
0	H	0.162719	0.786543	0.434723
0	H	0.879692	0.709431	0.767899
0	H	0.290315	0.170315	0.767821
0	H	0.829432	0.119781	0.767921
0	C	0.534469	0.966663	0.0819259
0	C	0.0364502	0.56885	0.0785015
0	C	0.430938	0.467237	0.0789633
0	C	0.199561	0.297766	0.412411
0	C	0.701785	0.901792	0.413274
0	C	0.0979285	0.799976	0.412729
0	C	0.866328	0.631242	0.746027
0	C	0.368521	0.235097	0.745979
0	C	0.764687	0.133288	0.746065
0	H	0.494766	0.948056	0.116109
0	H	0.0551497	0.54769	0.11178
0	H	0.452098	0.507062	0.112377
0	H	0.159733	0.279133	0.445853
0	H	0.720409	0.880552	0.446464
0	H	0.119097	0.839771	0.446336
0	H	0.826518	0.612604	0.779521
0	H	0.387144	0.213903	0.779504
0	H	0.785894	0.173086	0.779601
0	C	0.354381	0.90783	0.733449
0	C	0.09173	0.446794	0.732489
0	C	0.552902	0.644464	0.732869
0	C	0.0215134	0.241278	0.0667933
0	C	0.758359	0.780146	0.0668004
0	C	0.219449	0.978116	0.0668247
0	C	0.688175	0.574708	0.400257
0	C	0.425114	0.113474	0.400174
0	C	0.886385	0.311539	0.400226
0	C	0.378927	0.906913	0.839116
0	C	0.0926846	0.472229	0.838231
0	C	0.527496	0.620019	0.838644
0	C	0.0459329	0.240242	0.172552
0	C	0.759365	0.805574	0.172584
0	C	0.193977	0.953705	0.172555
0	C	0.712665	0.573747	0.505974
0	C	0.426088	0.138931	0.505886
0	C	0.860951	0.287077	0.505957
0	H	0.379954	0.871819	0.863293
0	H	0.127746	0.508364	0.862347
0	H	0.491349	0.618948	0.862757
0	H	0.0469725	0.205145	0.196554
0	H	0.794439	0.84171	0.196621
0	H	0.157851	0.952708	0.196495
0	H	0.713758	0.538682	0.530045
0	H	0.461165	0.175066	0.529945
0	H	0.824804	0.286017	0.530034
0	C	0.402622	0.95105	0.911742
0	C	0.0486169	0.451712	0.91111
0	C	0.548076	0.596534	0.911555
0	C	0.0694369	0.284262	0.24555
0	C	0.715337	0.785047	0.245569
0	C	0.214452	0.930148	0.245566
0	C	0.736187	0.617812	0.578845
0	C	0.382022	0.118424	0.578751
0	C	0.881486	0.263531	0.578822
0	H	0.421839	0.950235	0.993467
0	H	0.049466	0.471727	0.992873
0	H	0.528106	0.577426	0.9934
0	H	0.0885553	0.283367	0.327366
0	H	0.716211	0.805035	0.32741
0	H	0.19443	0.911033	0.327368
0	H	0.755339	0.616955	0.660637
0	H	0.382889	0.138445	0.660528
0	H	0.861481	0.244394	0.660618
0	C	0.402022	0.996333	0.879307
0	C	0.00336157	0.405778	0.878935
0	C	0.594024	0.597223	0.879281
0	C	0.0687623	0.329533	0.213403
0	C	0.670076	0.739119	0.213407
0	C	0.260374	0.93076	0.213448
0	C	0.735487	0.663062	0.546601
0	C	0.336763	0.0724987	0.546546
0	C	0.927415	0.264181	0.54656
0	H	0.42039	0.0306353	0.935996
0	H	0.969118	0.389794	0.935845
0	H	0.610033	0.578983	0.936187
0	H	0.0870138	0.36374	0.270388
0	H	0.635857	0.723157	0.27038
0	H	0.276305	0.912479	0.270466
0	H	0.753756	0.697304	0.603479
0	H	0.30252	0.0565531	0.603427
0	H	0.943381	0.245891	0.603434
0	C	0.377969	0.997507	0.773453
0	C	0.00215758	0.380545	0.77308
0	C	0.619215	0.621208	0.773352
0	C	0.0447959	0.330812	0.107499
0	C	0.668826	0.713903	0.107485
0	C	0.285619	0.954692	0.107528
0	C	0.711464	0.664275	0.440735
0	C	0.335537	0.047255	0.440688
0	C	0.952634	0.288174	0.440663
0	H	0.377917	0.0328611	0.746751
0	H	0.966844	0.345062	0.746599
0	H	0.654695	0.62136	0.746812
0	H	0.0446652	0.366154	0.0810353
0	H	0.633496	0.678436	0.0810245
0	H	0.321068	0.954759	0.0810811
0	H	0.711314	0.699601	0.4142
0	H	0.300205	0.0117952	0.414182
0	H	0.988092	0.28828	0.414105
0	C	0.354215	0.953457	0.700626
0	C	0.0461383	0.400915	0.69999
0	C	0.598796	0.64478	0.700258
0	C	0.0212148	0.286871	0.0343166
0	C	0.712772	0.734283	0.0342819
0	C	0.265293	0.978315	0.0343218
0	C	0.687858	0.620289	0.367688
0	C	0.379521	0.0676097	0.36761
0	C	0.932255	0.311796	0.367616
0	H	0.335784	0.954913	0.618158
0	H	0.0446573	0.38099	0.617554
0	H	0.618697	0.663225	0.617798
0	H	0.0027668	0.288335	0.951868
0	H	0.711312	0.714407	0.951786
0	H	0.285183	0.996723	0.951836
0	H	0.669397	0.621755	0.285252
0	H	0.378044	0.0476795	0.285175
0	H	0.952163	0.330226	0.285146
0	C	0.242216	0.831441	0.75568
0	C	0.16802	0.410963	0.755366
0	C	0.588734	0.756617	0.756774
0	C	0.909532	0.165008	0.0895175
0	C	0.834626	0.744317	0.0895351
0	C	0.255313	0.0901357	0.0894852
0	C	0.576068	0.498396	0.423061
0	C	0.501403	0.0776267	0.42304
0	C	0.922157	0.423636	0.423121
0	C	0.234954	0.83318	0.878299
0	C	0.16637	0.401978	0.877986
0	C	0.597882	0.764186	0.879291
0	C	0.902234	0.166674	0.212127
0	C	0.83297	0.735343	0.212143
0	C	0.264306	0.0974628	0.212081
0	C	0.568694	0.500053	0.545647
0	C	0.499761	0.0686036	0.545615
0	C	0.931189	0.431002	0.545691
0	H	0.255012	0.821145	0.940593
0	H	0.178423	0.434056	0.940301
0	H	0.565882	0.74425	0.941845
0	H	0.922278	0.154612	0.274382
0	H	0.845018	0.767429	0.274415
0	H	0.232234	0.0774169	0.274384
0	H	0.588708	0.488001	0.608022
0	H	0.511887	0.100693	0.607912
0	H	0.899121	0.410977	0.60802
0	C	0.202224	0.850893	0.920882
0	C	0.148724	0.351565	0.920613
0	C	0.648337	0.797099	0.921466
0	C	0.869463	0.184321	0.254736
0	C	0.815333	0.684938	0.254731
0	C	0.314719	0.13025	0.254608
0	C	0.535884	0.517684	0.588122
0	C	0.482037	0.0181554	0.588087
0	C	0.98162	0.463806	0.588124
0	H	0.197172	0.852994	0.0162246
0	H	0.146679	0.34443	0.0159598
0	H	0.655603	0.802358	0.0167492
0	H	0.864386	0.186371	0.350093
0	H	0.813279	0.677807	0.350076
0	H	0.32187	0.135361	0.349948
0	H	0.530759	0.519728	0.68345
0	H	0.479979	0.0110161	0.68342
0	H	0.988793	0.468896	0.683451
0	C	0.176279	0.86648	0.841575
0	C	0.133138	0.310028	0.841361
0	C	0.68973	0.822982	0.841816
0	C	0.84351	0.199888	0.175407
0	C	0.799773	0.643434	0.175401
0	C	0.356203	0.156179	0.175207
0	C	0.509946	0.533253	0.508751
0	C	0.466395	0.976644	0.508727
0	C	0.0231032	0.48976	0.508719
0	H	0.150661	0.880116	0.875433
0	H	0.119535	0.270793	0.875248
0	H	0.729004	0.848715	0.875362
0	H	0.817877	0.2135	0.209303
0	H	0.786163	0.604199	0.209285
0	H	0.39544	0.181823	0.209039
0	H	0.484267	0.54683	0.54256
0	H	0.452678	0.937362	0.542441
0	H	0.0623538	0.515454	0.54247
0	C	0.182915	0.864093	0.719354
0	C	0.135491	0.319034	0.71914
0	C	0.680539	0.816155	0.719678
0	C	0.850148	0.19752	0.0531773
0	C	0.802139	0.652448	0.0531771
0	C	0.347165	0.149503	0.052993
0	C	0.516652	0.530896	0.386554
0	C	0.468793	0.985715	0.386539
0	C	0.0140299	0.483058	0.386529
0	H	0.162099	0.875458	0.657506
0	H	0.124157	0.286858	0.65732
0	H	0.712602	0.836979	0.657564
0	H	0.829307	0.208842	0.991293
0	H	0.790824	0.620297	0.991297
0	H	0.37929	0.170331	0.991039
0	H	0.495827	0.542227	0.324654
0	H	0.457465	0.953563	0.324649
0	H	0.046153	0.503894	0.324596
0	C	0.21587	0.846718	0.676318
0	C	0.152781	0.369331	0.676075
0	C	0.630194	0.783003	0.677055
0	C	0.883144	0.180207	0.0101067
0	C	0.819421	0.702742	0.0101195
0	C	0.296867	0.11648	0.010007
0	C	0.549688	0.513601	0.343614
0	C	0.486138	0.0360413	0.343603
0	C	0.963713	0.450004	0.343639
0	H	0.220871	0.844528	0.581101
0	H	0.154947	0.376485	0.580851
0	H	0.622889	0.777923	0.581895
0	H	0.888114	0.178005	0.91488
0	H	0.8216	0.709902	0.914892
0	H	0.289679	0.111455	0.91479
0	H	0.554706	0.511418	0.248399
0	H	0.488341	0.0432749	0.248403
0	H	0.956484	0.444943	0.248443
