#******************************************
#
# CIF file created by Zeo++
# Zeo++ is an open source package to
# analyze microporous materials
#
#*******************************************

_cell_length_a		16.7507(0)
_cell_length_b		12.3709(0)
_cell_length_c		16.274(0)
_cell_angle_alpha		90(0)
_cell_angle_beta		104.501(0)
_cell_angle_gamma		90(0)

_symmetry_space_group_name_H-M		'P1'
_symmetry_Int_Tables_number		1
_symmetry_cell_setting		Monoclinic

loop_
_symmetry_equiv_pos_as_xyz
'+x,+y,+z'

loop_
_atom_site_label
_atom_site_type_symbol
_atom_site_fract_x
_atom_site_fract_y
_atom_site_fract_z
0	C	0.794588	0.16474	0.170325
0	C	0.215182	0.674353	0.3322
0	C	0.217818	0.839647	0.822926
0	C	0.797572	0.329735	0.661099
0	C	0.660326	0.211661	0.206693
0	C	0.349695	0.718969	0.295051
0	C	0.352125	0.792777	0.786644
0	C	0.664183	0.284312	0.698686
0	C	0.631008	0.109507	0.22541
0	C	0.376571	0.616335	0.274438
0	C	0.381474	0.894926	0.767951
0	C	0.63713	0.387073	0.718964
0	C	0.54834	0.0986875	0.227408
0	C	0.458702	0.603489	0.27054
0	C	0.464152	0.905711	0.765979
0	C	0.554982	0.399952	0.722752
0	H	0.525357	0.0203428	0.241674
0	H	0.480006	0.524599	0.255286
0	H	0.487161	0.984035	0.751709
0	H	0.533656	0.478855	0.737981
0	C	0.494583	0.187337	0.211032
0	C	0.513896	0.690511	0.286179
0	C	0.517849	0.817002	0.782301
0	C	0.499749	0.312957	0.707065
0	C	0.523611	0.28789	0.191627
0	C	0.486898	0.792101	0.306065
0	C	0.488791	0.716442	0.801658
0	C	0.526813	0.211389	0.687236
0	H	0.48176	0.356478	0.177969
0	H	0.529654	0.859765	0.318624
0	H	0.5306	0.647813	0.815264
0	H	0.484034	0.143763	0.674521
0	C	0.606072	0.301378	0.189207
0	C	0.405324	0.807536	0.310585
0	C	0.406329	0.703005	0.804081
0	C	0.608496	0.195909	0.683
0	C	0.685851	0.0126092	0.242147
0	C	0.320789	0.520334	0.257037
0	C	0.326615	0.991804	0.751177
0	C	0.692665	0.483369	0.735998
0	H	0.699058	0.982729	0.183212
0	H	0.308281	0.488682	0.315765
0	H	0.313331	0.0216939	0.810071
0	H	0.705248	0.514618	0.677212
0	H	0.658304	0.945199	0.269181
0	H	0.347348	0.453318	0.228416
0	H	0.354157	0.0592095	0.724131
0	H	0.665792	0.55052	0.76419
0	H	0.745379	0.0308852	0.287237
0	H	0.261116	0.53994	0.212863
0	H	0.267122	0.973496	0.70604
0	H	0.752302	0.464393	0.780512
0	C	0.407005	0.173362	0.214814
0	C	0.600947	0.674207	0.281231
0	C	0.605436	0.830919	0.778509
0	C	0.412667	0.329447	0.71188
0	H	0.377034	0.106523	0.1737
0	H	0.630315	0.606866	0.322125
0	H	0.635442	0.897714	0.819654
0	H	0.383335	0.396656	0.670794
0	H	0.369402	0.245789	0.19472
0	H	0.639563	0.745848	0.301114
0	H	0.642988	0.758439	0.798556
0	H	0.373971	0.257843	0.692173
0	H	0.403148	0.153611	0.279611
0	H	0.603843	0.654175	0.216224
0	H	0.609265	0.850702	0.713708
0	H	0.409688	0.349857	0.776801
0	C	0.635274	0.409301	0.16791
0	C	0.377531	0.916433	0.331494
0	C	0.377074	0.59508	0.825304
0	C	0.636438	0.0871091	0.662083
0	H	0.586698	0.470896	0.156014
0	H	0.426951	0.976726	0.344254
0	H	0.425636	0.533469	0.837283
0	H	0.587232	0.0265216	0.64996
0	H	0.659657	0.404433	0.111166
0	H	0.351671	0.912448	0.387346
0	H	0.352551	0.599931	0.881956
0	H	0.661608	0.0911698	0.605776
0	H	0.686602	0.438812	0.219696
0	H	0.327217	0.946768	0.278987
0	H	0.325819	0.565597	0.773431
0	H	0.687337	0.0573066	0.714252
0	C	0.949365	0.186864	0.218956
0	C	0.0595078	0.696241	0.282201
0	C	0.0630877	0.817411	0.774349
0	C	0.952978	0.311265	0.712815
0	C	0.966703	0.250258	0.152997
0	C	0.0393932	0.758607	0.347302
0	C	0.0457866	0.754154	0.840393
0	C	0.972408	0.248041	0.647797
0	C	0.0485108	0.260763	0.147688
0	C	0.957166	0.76678	0.350988
0	C	0.963985	0.743724	0.845763
0	C	0.0545175	0.23899	0.643684
0	H	0.0621782	0.309281	0.09711
0	H	0.941583	0.814738	0.400832
0	H	0.950323	0.695244	0.896363
0	H	0.0694819	0.190592	0.593725
0	C	0.112846	0.208853	0.206031
0	C	0.894745	0.712815	0.291624
0	C	0.899628	0.795527	0.787386
0	C	0.117536	0.292469	0.702622
0	C	0.0951562	0.14398	0.2697
0	C	0.915164	0.648224	0.22932
0	C	0.91729	0.860314	0.723652
0	C	0.0978898	0.357332	0.765221
0	H	0.144703	0.100794	0.31348
0	H	0.867045	0.603246	0.185143
0	H	0.867752	0.903602	0.679957
0	H	0.146461	0.401735	0.809279
0	C	0.0140932	0.132473	0.277164
0	C	0.997053	0.639162	0.223451
0	C	0.998338	0.871754	0.716132
0	C	0.0161993	0.367389	0.771443
0	C	0.90064	0.305447	0.0879462
0	C	0.105239	0.813037	0.412804
0	C	0.111833	0.698896	0.905439
0	C	0.906704	0.193	0.582509
0	H	0.863432	0.246206	0.0439445
0	H	0.14423	0.751566	0.452748
0	H	0.14905	0.757995	0.949587
0	H	0.868435	0.253757	0.541082
0	H	0.925249	0.360607	0.0472841
0	H	0.0810369	0.864327	0.456107
0	H	0.0871509	0.643609	0.945956
0	H	0.931155	0.14021	0.540288
0	H	0.859376	0.353209	0.116762
0	H	0.145033	0.864112	0.384365
0	H	0.153081	0.651195	0.876552
0	H	0.866233	0.143186	0.610979
0	C	0.199696	0.223866	0.199871
0	C	0.807133	0.725435	0.295833
0	C	0.812775	0.78044	0.793519
0	C	0.204865	0.27893	0.697648
0	H	0.207376	0.194362	0.138459
0	H	0.798658	0.695294	0.356783
0	H	0.804996	0.810108	0.854846
0	H	0.212955	0.308745	0.636457
0	H	0.244129	0.179811	0.24964
0	H	0.763985	0.680841	0.24536
0	H	0.768306	0.824233	0.74362
0	H	0.248593	0.32324	0.747806
0	H	0.217194	0.309662	0.205148
0	H	0.78856	0.810881	0.290413
0	H	0.795402	0.694594	0.788426
0	H	0.222957	0.193305	0.702932
0	C	0.996969	0.0642877	0.346369
0	C	0.0159911	0.570751	0.155275
0	C	0.0154402	0.939911	0.646892
0	C	0.997865	0.435773	0.839959
0	H	0.0530758	0.0300397	0.387968
0	H	0.960374	0.536861	0.112371
0	H	0.959335	0.97422	0.60534
0	H	0.053688	0.469395	0.88264
0	H	0.956317	0.996043	0.319905
0	H	0.0556132	0.501919	0.182465
0	H	0.0561275	0.00813657	0.673366
0	H	0.958188	0.504651	0.813025
0	H	0.964925	0.110891	0.386188
0	H	0.0492402	0.616966	0.116377
0	H	0.0474615	0.893277	0.607073
0	H	0.96468	0.389504	0.878908
0	C	0.835173	0.0306064	0.0757681
0	C	0.175147	0.532169	0.421092
0	C	0.177262	0.973872	0.917466
0	C	0.836247	0.469919	0.57048
0	C	0.876353	0.958398	0.138747
0	C	0.133781	0.461586	0.35694
0	C	0.136119	0.0460717	0.854467
0	C	0.876609	0.540851	0.634917
0	H	0.86437	0.957972	0.201523
0	H	0.145381	0.463184	0.294037
0	H	0.148161	0.0465258	0.791718
0	H	0.864567	0.538921	0.697624
0	C	0.934914	0.888309	0.12049
0	C	0.0756395	0.390055	0.374426
0	C	0.0774649	0.116079	0.872653
0	C	0.934721	0.613072	0.618222
0	H	0.969292	0.834289	0.169945
0	H	0.041256	0.336652	0.324392
0	H	0.0430122	0.170008	0.82314
0	H	0.96853	0.666474	0.668609
0	C	0.950669	0.888119	0.0400934
0	C	0.0602938	0.387391	0.454995
0	C	0.0616219	0.116236	0.953013
0	C	0.95086	0.616342	0.53802
0	H	0.997145	0.833789	0.0266814
0	H	0.0138161	0.332406	0.467692
0	H	0.0150262	0.170461	0.966317
0	H	0.997499	0.671583	0.52599
0	C	0.908061	0.959013	0.977427
0	C	0.103259	0.456668	0.518771
0	C	0.104225	0.0453775	0.0157143
0	C	0.908477	0.547293	0.473773
0	H	0.921319	0.959477	0.914861
0	H	0.0905867	0.455141	0.581554
0	H	0.0909169	0.0448261	0.0782607
0	H	0.921617	0.549413	0.411215
0	C	0.849968	0.0309972	0.994645
0	C	0.161019	0.529697	0.502408
0	C	0.162384	0.973463	0.998551
0	C	0.850791	0.473603	0.489378
0	H	0.817919	0.0866809	0.945153
0	H	0.193684	0.584533	0.552219
0	H	0.194466	0.917858	0.0480752
0	H	0.818542	0.41898	0.439237
0	C	0.698788	0.124867	0.0319789
0	C	0.312232	0.625989	0.466568
0	C	0.313613	0.879514	0.961282
0	C	0.699677	0.374421	0.524899
0	C	0.646025	0.0373379	0.00275215
0	C	0.365092	0.538075	0.494039
0	C	0.36631	0.967071	0.990668
0	C	0.647494	0.464014	0.500467
0	H	0.661684	0.956374	0.0278084
0	H	0.348007	0.457009	0.469991
0	H	0.350593	0.0480693	0.965721
0	H	0.665943	0.543847	0.526592
0	C	0.573312	0.0556192	0.940177
0	C	0.440211	0.556351	0.553141
0	C	0.43903	0.948749	0.0532289
0	C	0.571708	0.44977	0.441662
0	H	0.531575	0.988197	0.917113
0	H	0.482408	0.488825	0.57443
0	H	0.480725	0.0161831	0.0764019
0	H	0.530589	0.518869	0.422493
0	C	0.553837	0.159317	0.906985
0	C	0.461787	0.660263	0.584801
0	C	0.458577	0.844986	0.0862544
0	C	0.547991	0.347612	0.407299
0	H	0.49732	0.172827	0.857715
0	H	0.520399	0.673946	0.630914
0	H	0.515091	0.831435	0.135526
0	H	0.488666	0.336592	0.361774
0	C	0.607371	0.245667	0.936047
0	C	0.407743	0.746815	0.558156
0	C	0.405124	0.758617	0.0570398
0	C	0.601106	0.259615	0.430489
0	H	0.59295	0.326031	0.908732
0	H	0.423902	0.827438	0.584228
0	H	0.419617	0.678195	0.0842175
0	H	0.583672	0.18026	0.402345
0	C	0.680189	0.229242	0.998929
0	C	0.332507	0.730404	0.498974
0	C	0.332314	0.775072	0.994156
0	C	0.677572	0.27225	0.488773
0	H	0.722234	0.296428	0.0207199
0	H	0.29012	0.797743	0.478722
0	H	0.290366	0.707849	0.972211
0	H	0.717801	0.201874	0.502576
0	N	0.744528	0.229565	0.206838
0	N	0.267381	0.742349	0.299697
0	N	0.267904	0.774901	0.786428
0	N	0.746895	0.261281	0.69487
0	N	0.868716	0.175621	0.232803
0	N	0.141673	0.692963	0.272193
0	N	0.143713	0.828649	0.76044
0	N	0.871015	0.317594	0.723605
0	N	0.775248	0.104881	0.0962899
0	N	0.235045	0.607938	0.402741
0	N	0.237146	0.899492	0.896988
0	N	0.77775	0.391193	0.588021
0	Cl	0.856806	0.395688	0.288214
0	Cl	0.158122	0.91063	0.213693
0	Cl	0.155748	0.608755	0.704644
0	Cl	0.859297	0.0983837	0.782417
0	Cl	0.816054	0.209402	0.386273
0	Cl	0.195672	0.720652	0.118837
0	Cl	0.197015	0.795021	0.607061
0	Cl	0.816305	0.285961	0.876154
0	B	0.822719	0.255969	0.282171
0	B	0.189895	0.770424	0.223025
0	B	0.18982	0.748462	0.710996
0	B	0.824327	0.237437	0.772461
