#******************************************
#
# CIF file created by Zeo++
# Zeo++ is an open source package to
# analyze microporous materials
#
#*******************************************

_cell_length_a		19.7826(0)
_cell_length_b		7.36377(0)
_cell_length_c		34.4302(0)
_cell_angle_alpha		90(0)
_cell_angle_beta		90(0)
_cell_angle_gamma		90(0)

_symmetry_space_group_name_H-M		'P1'
_symmetry_Int_Tables_number		1
_symmetry_cell_setting		Monoclinic

loop_
_symmetry_equiv_pos_as_xyz
'+x,+y,+z'

loop_
_atom_site_label
_atom_site_type_symbol
_atom_site_fract_x
_atom_site_fract_y
_atom_site_fract_z
0	N	0.763056	0.19049	0.0694779
0	N	0.625066	0.139811	0.568247
0	N	0.12835	0.696612	0.421437
0	N	0.264799	0.632902	0.919887
0	N	0.129238	0.13348	0.920249
0	N	0.26415	0.198301	0.421021
0	N	0.761463	0.639803	0.56815
0	N	0.627153	0.692824	0.0696976
0	C	0.700739	0.159111	0.0874062
0	C	0.687236	0.172721	0.586304
0	C	0.190626	0.662583	0.403707
0	C	0.20279	0.666312	0.90176
0	C	0.191467	0.166595	0.902382
0	C	0.20211	0.164047	0.402969
0	C	0.69914	0.673816	0.585855
0	C	0.689165	0.659789	0.0878704
0	O	0.648755	0.124743	0.0692243
0	O	0.739337	0.207007	0.568233
0	O	0.242502	0.627974	0.422008
0	O	0.150653	0.700613	0.919794
0	O	0.243394	0.201192	0.920621
0	O	0.149976	0.130073	0.421041
0	O	0.647366	0.709115	0.567533
0	O	0.741254	0.624749	0.0698645
0	C	0.711702	0.176767	0.130099
0	C	0.675873	0.157323	0.629018
0	C	0.179902	0.677438	0.360961
0	C	0.214323	0.650837	0.859082
0	C	0.180551	0.150638	0.859657
0	C	0.213611	0.177819	0.360247
0	C	0.709748	0.657919	0.6286
0	C	0.677623	0.676753	0.130521
0	C	0.667084	0.154583	0.160661
0	C	0.72016	0.181593	0.659672
0	C	0.224622	0.651695	0.330578
0	C	0.170195	0.675731	0.828387
0	C	0.225116	0.174985	0.829139
0	C	0.16947	0.151509	0.329609
0	C	0.664926	0.682638	0.658969
0	C	0.721785	0.653233	0.161252
0	H	0.61442	0.117262	0.155774
0	H	0.772713	0.220055	0.654831
0	H	0.277101	0.613166	0.335717
0	H	0.117533	0.713417	0.83315
0	H	0.277736	0.212554	0.834114
0	H	0.116938	0.112949	0.334485
0	H	0.612475	0.721442	0.653829
0	H	0.774453	0.615517	0.156538
0	C	0.692203	0.179241	0.198559
0	C	0.694856	0.157587	0.697543
0	C	0.199809	0.674249	0.292567
0	C	0.195857	0.653502	0.790546
0	C	0.199993	0.152424	0.791188
0	C	0.194916	0.173475	0.291715
0	C	0.689592	0.658603	0.696976
0	C	0.696138	0.676955	0.199054
0	H	0.658118	0.16032	0.223192
0	H	0.728707	0.178084	0.722232
0	H	0.233884	0.651844	0.26805
0	H	0.162261	0.675356	0.765796
0	H	0.233975	0.173482	0.766585
0	H	0.16125	0.150769	0.267024
0	H	0.655398	0.679963	0.721473
0	H	0.729783	0.656423	0.223831
0	C	0.759712	0.22451	0.205025
0	C	0.627428	0.111166	0.703934
0	C	0.132532	0.721129	0.285825
0	C	0.263331	0.607317	0.784249
0	C	0.132539	0.106799	0.784629
0	C	0.262288	0.220403	0.2853
0	C	0.756834	0.611439	0.70373
0	C	0.628634	0.723032	0.205279
0	H	0.778277	0.240651	0.23471
0	H	0.608683	0.0957425	0.73358
0	H	0.114207	0.735719	0.256069
0	H	0.282333	0.59331	0.754617
0	H	0.113953	0.0924031	0.754905
0	H	0.281138	0.234269	0.255636
0	H	0.775039	0.595699	0.733486
0	H	0.609652	0.7382	0.234888
0	C	0.804956	0.247881	0.173837
0	C	0.582488	0.0858523	0.67268
0	C	0.0871679	0.747889	0.316826
0	C	0.308009	0.580477	0.815573
0	C	0.0873726	0.0809761	0.81576
0	C	0.307059	0.248089	0.316547
0	C	0.80231	0.585818	0.672739
0	C	0.583912	0.748333	0.173921
0	H	0.858486	0.278518	0.17858
0	H	0.529004	0.0544076	0.677322
0	H	0.033763	0.77934	0.311894
0	H	0.361485	0.548687	0.811014
0	H	0.0338837	0.0500161	0.810956
0	H	0.360498	0.279987	0.311884
0	H	0.855691	0.554111	0.677679
0	H	0.530409	0.779975	0.178436
0	C	0.780262	0.224131	0.136648
0	C	0.607458	0.108459	0.635512
0	C	0.111573	0.72625	0.354139
0	C	0.282812	0.602317	0.852707
0	C	0.112068	0.102901	0.853007
0	C	0.281992	0.227023	0.353733
0	C	0.778042	0.608759	0.635439
0	C	0.609102	0.725192	0.136823
0	C	0.818881	0.230546	0.0980133
0	C	0.569221	0.100213	0.596809
0	C	0.0727332	0.735666	0.392661
0	C	0.320932	0.593932	0.89147
0	C	0.0734213	0.0946471	0.891616
0	C	0.32012	0.236674	0.392463
0	C	0.816974	0.600079	0.596946
0	C	0.570986	0.732347	0.0980509
0	O	0.846157	0.404469	0.0903615
0	O	0.542089	0.926111	0.589221
0	O	0.0454923	0.909943	0.399896
0	O	0.34823	0.419986	0.899014
0	O	0.0460952	0.920574	0.898962
0	O	0.347349	0.410803	0.399858
0	O	0.844194	0.425815	0.589626
0	O	0.543615	0.906068	0.0903182
0	H	0.809062	0.500576	0.0874233
0	H	0.579228	0.830446	0.585873
0	H	0.0825941	0.00592019	0.403011
0	H	0.311147	0.324201	0.902372
0	H	0.0831353	0.824346	0.901992
0	H	0.310275	0.5066	0.403312
0	H	0.807056	0.330135	0.586338
0	H	0.580688	0.00203439	0.087137
0	C	0.879246	0.0887735	0.0973273
0	C	0.509107	0.242754	0.595747
0	C	0.0122204	0.594376	0.393532
0	C	0.381156	0.736171	0.892563
0	C	0.0130491	0.236407	0.892478
0	C	0.380181	0.0939338	0.393756
0	C	0.877483	0.741429	0.596202
0	C	0.510811	0.589994	0.0971014
0	O	0.920801	0.131116	0.130036
0	O	0.466604	0.201358	0.628072
0	O	0.970657	0.636465	0.36081
0	O	0.423604	0.694352	0.860198
0	O	0.971464	0.194748	0.859745
0	O	0.422789	0.134521	0.361428
0	O	0.919013	0.699015	0.628915
0	O	0.468445	0.632242	0.129479
0	H	0.957197	0.226058	0.123681
0	H	0.430434	0.106093	0.621519
0	H	0.934133	0.731032	0.367155
0	H	0.459661	0.598763	0.866732
0	H	0.935052	0.0997377	0.866027
0	H	0.459079	0.229547	0.36795
0	H	0.95547	0.604293	0.622566
0	H	0.432242	0.727337	0.122899
0	C	0.852262	0.898461	0.10586
0	C	0.536216	0.432876	0.604437
0	C	0.0387796	0.403384	0.38524
0	C	0.354241	0.926362	0.883798
0	C	0.0399592	0.426979	0.884128
0	C	0.353032	0.903678	0.385259
0	C	0.850862	0.932273	0.604604
0	C	0.537797	0.399986	0.105973
0	H	0.894841	0.804429	0.11066
0	H	0.493693	0.527752	0.608538
0	H	0.995976	0.310092	0.380438
0	H	0.396784	0.021315	0.879885
0	H	0.997328	0.521088	0.879564
0	H	0.395477	0.80833	0.381455
0	H	0.893644	0.0254686	0.609577
0	H	0.495277	0.305142	0.110105
0	H	0.821026	0.845875	0.0819727
0	H	0.568512	0.484219	0.580884
0	H	0.069738	0.350605	0.409232
0	H	0.321549	0.978033	0.907133
0	H	0.0713707	0.478926	0.908005
0	H	0.320451	0.853216	0.408773
0	H	0.820041	0.985477	0.580599
0	H	0.570271	0.347836	0.0825875
0	H	0.82188	0.895495	0.132501
0	H	0.565442	0.436207	0.631497
0	H	0.0692371	0.398945	0.358644
0	H	0.32546	0.929653	0.85657
0	H	0.070107	0.430783	0.857404
0	H	0.324073	0.899612	0.35811
0	H	0.820235	0.936162	0.631139
0	H	0.566846	0.397329	0.133112
0	C	0.921786	0.0979979	0.0602028
0	C	0.467866	0.234038	0.558153
0	C	0.969859	0.605023	0.430691
0	C	0.422654	0.72688	0.930052
0	C	0.970587	0.226296	0.929613
0	C	0.421296	0.103535	0.431383
0	C	0.919869	0.731403	0.559039
0	C	0.469164	0.598577	0.0596576
0	H	0.947578	0.233291	0.0587227
0	H	0.441903	0.0991184	0.556428
0	H	0.943924	0.740124	0.43189
0	H	0.448475	0.591709	0.931665
0	H	0.944851	0.0908988	0.93099
0	H	0.44726	0.238481	0.432995
0	H	0.945876	0.596416	0.557773
0	H	0.443303	0.733674	0.0579644
0	H	0.964177	0.998214	0.0627987
0	H	0.425623	0.334697	0.560163
0	H	0.927576	0.504684	0.428371
0	H	0.465033	0.827021	0.9279
0	H	0.928126	0.325949	0.927128
0	H	0.463541	0.00280412	0.429512
0	H	0.962087	0.831916	0.561409
0	H	0.426815	0.498417	0.0619301
0	C	0.882053	0.0614822	0.0230375
0	C	0.509349	0.269727	0.52157
0	C	0.00983592	0.570526	0.467856
0	C	0.381717	0.762626	0.96683
0	C	0.0104203	0.26218	0.966773
0	C	0.379691	0.0686676	0.467955
0	C	0.879867	0.766174	0.521894
0	C	0.509949	0.562241	0.0228521
0	H	0.850056	0.938775	0.0267583
0	H	0.543011	0.388541	0.526193
0	H	0.0422104	0.448438	0.464269
0	H	0.348865	0.883381	0.962696
0	H	0.0425668	0.384633	0.963086
0	H	0.346018	0.94982	0.463408
0	H	0.847334	0.887911	0.525565
0	H	0.542644	0.441174	0.0269945
0	H	0.917797	0.0272825	0.999328
0	H	0.474905	0.30971	0.497617
0	H	0.974216	0.536128	0.491634
0	H	0.416636	0.799364	0.990769
0	H	0.974742	0.296471	0.99051
0	H	0.41405	0.0291063	0.491983
0	H	0.915447	0.801251	0.498139
0	H	0.474921	0.525672	0.998956
0	C	0.838834	0.224684	0.0110285
0	C	0.550583	0.103466	0.509208
0	C	0.0525468	0.734892	0.479738
0	C	0.33946	0.597512	0.978759
0	C	0.0534393	0.0984381	0.978686
0	C	0.338448	0.23522	0.480124
0	C	0.837348	0.60165	0.509889
0	C	0.552384	0.726891	0.0108304
0	H	0.863098	0.352811	0.0209264
0	H	0.523439	0.977404	0.517672
0	H	0.0276531	0.862135	0.469878
0	H	0.365121	0.470599	0.969335
0	H	0.0289565	0.970674	0.968764
0	H	0.365653	0.361071	0.471578
0	H	0.862388	0.47445	0.519657
0	H	0.526929	0.854133	0.0202471
0	H	0.836078	0.234065	0.978816
0	H	0.554995	0.0990331	0.477001
0	H	0.0555196	0.744401	0.511948
0	H	0.335911	0.589402	0.0109559
0	H	0.0562721	0.0887997	0.0108948
0	H	0.333918	0.240278	0.512322
0	H	0.83441	0.592638	0.477672
0	H	0.55584	0.734752	0.978627
0	C	0.766714	0.216431	0.0267256
0	C	0.622038	0.0983297	0.526051
0	C	0.124652	0.729447	0.463959
0	C	0.267689	0.599792	0.962426
0	C	0.125548	0.105853	0.96295
0	C	0.26706	0.240172	0.4632
0	C	0.765219	0.60613	0.525661
0	C	0.624201	0.723875	0.0270918
0	H	0.737947	0.102817	0.0129984
0	H	0.655612	0.197578	0.510934
0	H	0.154699	0.620545	0.47849
0	H	0.236548	0.707095	0.976739
0	H	0.154677	0.218243	0.976886
0	H	0.233437	0.141089	0.478332
0	H	0.734887	0.714143	0.511027
0	H	0.654973	0.615212	0.0129892
0	H	0.739458	0.345018	0.0192867
0	H	0.644206	0.959956	0.521364
0	H	0.150475	0.861501	0.470301
0	H	0.242611	0.466451	0.968492
0	H	0.152409	0.976295	0.970102
0	H	0.244868	0.378607	0.467778
0	H	0.739759	0.473415	0.519458
0	H	0.649666	0.856309	0.0206836
0	N	0.127897	0.465597	0.0769194
0	N	0.260434	0.866775	0.575013
0	N	0.763193	0.971401	0.414024
0	N	0.630228	0.358134	0.914003
0	N	0.764372	0.859453	0.912635
0	N	0.629017	0.470157	0.414498
0	N	0.126513	0.364745	0.575679
0	N	0.261727	0.967435	0.0756195
0	C	0.190318	0.493783	0.0949396
0	C	0.198249	0.837745	0.593205
0	C	0.700578	0.997504	0.396127
0	C	0.692803	0.330648	0.896135
0	C	0.701894	0.832418	0.894615
0	C	0.691303	0.498204	0.396353
0	C	0.189131	0.338665	0.593574
0	C	0.199158	0.995265	0.0934597
0	O	0.242957	0.52378	0.0771994
0	O	0.145493	0.806289	0.575682
0	O	0.647971	0.0276579	0.413894
0	O	0.745405	0.300149	0.913897
0	O	0.64925	0.802143	0.912329
0	O	0.744009	0.529808	0.413923
0	O	0.24177	0.309207	0.575775
0	O	0.146519	0.0250769	0.0756739
0	C	0.178626	0.470185	0.13753
0	C	0.210164	0.862536	0.635736
0	C	0.711973	0.971892	0.353575
0	C	0.68161	0.355298	0.853533
0	C	0.713503	0.857527	0.852054
0	C	0.679561	0.472186	0.353842
0	C	0.177665	0.363279	0.636143
0	C	0.210384	0.971846	0.136089
0	C	0.223088	0.485462	0.16835
0	C	0.165842	0.847192	0.666604
0	C	0.667089	0.984093	0.32291
0	C	0.726464	0.341097	0.822881
0	C	0.668903	0.84435	0.821261
0	C	0.724037	0.485966	0.32301
0	C	0.222485	0.350115	0.666826
0	C	0.165567	0.987239	0.166734
0	H	0.276163	0.51968	0.16382
0	H	0.112832	0.811989	0.66211
0	H	0.613945	0.0171785	0.327581
0	H	0.779477	0.306403	0.827567
0	H	0.615804	0.810423	0.825782
0	H	0.777055	0.521077	0.327509
0	H	0.275628	0.317078	0.662144
0	H	0.112562	0.0219245	0.162019
0	C	0.197315	0.457508	0.206011
0	C	0.191754	0.876552	0.704182
0	C	0.692515	0.954252	0.285238
0	C	0.701161	0.370817	0.785176
0	C	0.694533	0.874242	0.783632
0	C	0.698295	0.455105	0.285452
0	C	0.19697	0.378794	0.704519
0	C	0.190916	0.95874	0.204473
0	H	0.231276	0.471581	0.230867
0	H	0.157909	0.862514	0.729073
0	H	0.658165	0.965168	0.260519
0	H	0.735451	0.358116	0.760436
0	H	0.660402	0.862412	0.758809
0	H	0.732293	0.467479	0.260591
0	H	0.23124	0.366811	0.729257
0	H	0.156675	0.972703	0.229209
0	C	0.12945	0.415037	0.212055
0	C	0.259511	0.92079	0.710081
0	C	0.760458	0.913106	0.279076
0	C	0.633351	0.413533	0.77896
0	C	0.762455	0.91611	0.777598
0	C	0.630502	0.411349	0.279527
0	C	0.129025	0.419952	0.710685
0	C	0.258697	0.91583	0.21073
0	H	0.110542	0.395131	0.241559
0	H	0.278439	0.942092	0.73954
0	H	0.77904	0.891696	0.249554
0	H	0.614864	0.435184	0.749426
0	H	0.781265	0.937465	0.74812
0	H	0.611696	0.388945	0.25008
0	H	0.110364	0.440535	0.740215
0	H	0.277218	0.895058	0.240286
0	C	0.0842855	0.399187	0.180608
0	C	0.304526	0.936849	0.678565
0	C	0.806058	0.9002	0.310388
0	C	0.587718	0.427599	0.810229
0	C	0.807792	0.929621	0.809022
0	C	0.585294	0.397136	0.310989
0	C	0.0835008	0.433835	0.679361
0	C	0.304274	0.90051	0.179461
0	H	0.0306722	0.368878	0.18492
0	H	0.358055	0.968758	0.682773
0	H	0.859677	0.870357	0.305949
0	H	0.534094	0.457646	0.805781
0	H	0.861435	0.959546	0.80471
0	H	0.531734	0.365687	0.306758
0	H	0.0298745	0.463632	0.683796
0	H	0.357885	0.870343	0.18393
0	C	0.109516	0.427378	0.143699
0	C	0.279199	0.906655	0.641753
0	C	0.781152	0.930228	0.347295
0	C	0.612548	0.397931	0.847171
0	C	0.782654	0.899894	0.845894
0	C	0.610506	0.428431	0.347789
0	C	0.10847	0.404759	0.64243
0	C	0.279435	0.929184	0.142488
0	C	0.0716428	0.426141	0.104974
0	C	0.316851	0.906635	0.602972
0	C	0.819327	0.930937	0.385923
0	C	0.574235	0.397954	0.88575
0	C	0.820588	0.899686	0.884603
0	C	0.572708	0.429561	0.38652
0	C	0.0703377	0.404669	0.603791
0	C	0.317734	0.928286	0.103904
0	O	0.0428639	0.255756	0.0959797
0	O	0.345841	0.0764913	0.593739
0	O	0.848081	0.760742	0.3951
0	O	0.545331	0.568087	0.89478
0	O	0.849359	0.0698638	0.893807
0	O	0.543731	0.259827	0.395888
0	O	0.0415586	0.574922	0.594697
0	O	0.346646	0.757993	0.0950194
0	H	0.0782513	0.156139	0.0934901
0	H	0.310742	0.177214	0.592232
0	H	0.812727	0.660678	0.396893
0	H	0.580491	0.668692	0.896092
0	H	0.813951	0.169473	0.896261
0	H	0.578851	0.159184	0.397496
0	H	0.0769244	0.674969	0.59285
0	H	0.31148	0.657453	0.0936382
0	C	0.00993763	0.560901	0.10297
0	C	0.378393	0.771316	0.60102
0	C	0.881016	0.0658022	0.387705
0	C	0.512528	0.263189	0.887441
0	C	0.882258	0.764813	0.886456
0	C	0.511137	0.564815	0.388275
0	C	0.00867919	0.269745	0.60191
0	C	0.37944	0.0630639	0.102093
0	O	0.963706	0.473076	0.129699
0	O	0.424476	0.858983	0.627833
0	O	0.92726	0.977441	0.36107
0	O	0.466624	0.351401	0.860577
0	O	0.928419	0.85309	0.859752
0	O	0.465243	0.476626	0.361438
0	O	0.962338	0.357741	0.628548
0	O	0.425411	0.975148	0.128958
0	H	0.916048	0.471288	0.119573
0	H	0.472227	0.860005	0.617868
0	H	0.974989	0.976829	0.371098
0	H	0.418826	0.352391	0.87049
0	H	0.976138	0.854211	0.869776
0	H	0.417417	0.475808	0.371276
0	H	0.91465	0.358516	0.618458
0	H	0.473128	0.973212	0.118915
0	C	0.0266628	0.746006	0.119854
0	C	0.361553	0.586047	0.617786
0	C	0.864073	0.250411	0.370634
0	C	0.52949	0.0780664	0.870643
0	C	0.865483	0.580032	0.869438
0	C	0.528037	0.749869	0.371416
0	C	0.0256187	0.0849756	0.618904
0	C	0.362514	0.248365	0.118814
0	H	0.981822	0.836027	0.119853
0	H	0.406316	0.495754	0.617798
0	H	0.908612	0.341469	0.370791
0	H	0.484823	0.987487	0.870598
0	H	0.910196	0.489576	0.86954
0	H	0.483337	0.840356	0.371454
0	H	0.981016	0.994152	0.618837
0	H	0.407245	0.338721	0.11886
0	H	0.0669349	0.815238	0.103611
0	H	0.321293	0.517088	0.601447
0	H	0.823325	0.318719	0.386683
0	H	0.56986	0.00939806	0.886975
0	H	0.824983	0.510975	0.885521
0	H	0.568405	0.818801	0.38768
0	H	0.0662028	0.0165271	0.602749
0	H	0.322219	0.317077	0.10243
0	H	0.0423887	0.735452	0.15034
0	H	0.345746	0.596074	0.648259
0	H	0.848726	0.239045	0.340101
0	H	0.545339	0.0883906	0.840174
0	H	0.850062	0.591141	0.838908
0	H	0.54371	0.739398	0.340925
0	H	0.0411978	0.0960546	0.649404
0	H	0.346584	0.238412	0.149274
0	C	0.978061	0.564772	0.0623525
0	C	0.410083	0.768109	0.560348
0	C	0.912855	0.0709563	0.428331
0	C	0.480241	0.259618	0.927955
0	C	0.914217	0.760221	0.927048
0	C	0.479259	0.568784	0.428897
0	C	0.97692	0.265013	0.561264
0	C	0.411621	0.0662286	0.0615481
0	H	0.977477	0.422539	0.0507242
0	H	0.40984	0.910216	0.548581
0	H	0.913305	0.929096	0.440201
0	H	0.479911	0.401807	0.939613
0	H	0.914807	0.902271	0.938788
0	H	0.479452	0.426915	0.440796
0	H	0.97649	0.406991	0.549463
0	H	0.411983	0.923902	0.0499717
0	H	0.92355	0.600459	0.0654858
0	H	0.46478	0.734139	0.563326
0	H	0.967391	0.106374	0.425149
0	H	0.425677	0.224712	0.924624
0	H	0.968728	0.724618	0.923845
0	H	0.424572	0.602684	0.425804
0	H	0.922379	0.229578	0.564386
0	H	0.46618	0.101349	0.0648095
0	C	0.00998611	0.694275	0.0330043
0	C	0.378292	0.63718	0.531239
0	C	0.880912	0.201841	0.457406
0	C	0.511644	0.129075	0.957286
0	C	0.882366	0.630283	0.956332
0	C	0.510914	0.700328	0.45794
0	C	0.00892229	0.13444	0.53215
0	C	0.380099	0.196338	0.0321726
0	H	0.981792	0.6784	0.00507302
0	H	0.40609	0.652785	0.503222
0	H	0.90924	0.187429	0.485333
0	H	0.483278	0.144653	0.985134
0	H	0.910581	0.645977	0.984265
0	H	0.483026	0.685146	0.485937
0	H	0.98062	0.149044	0.504221
0	H	0.40848	0.180732	0.00433099
0	H	2.82313e-05	0.83699	0.0426355
0	H	0.388779	0.494905	0.54101
0	H	0.890768	0.34412	0.447415
0	H	0.501493	0.986721	0.947428
0	H	0.892389	0.487678	0.946638
0	H	0.500401	0.84242	0.448048
0	H	0.999097	0.992058	0.542079
0	H	0.39012	0.338814	0.0419857
0	C	0.0859698	0.674422	0.0253872
0	C	0.302172	0.655355	0.523886
0	C	0.805005	0.18207	0.465244
0	C	0.587647	0.14735	0.965053
0	C	0.806383	0.649756	0.963981
0	C	0.587018	0.682559	0.465389
0	C	0.0848317	0.154496	0.524343
0	C	0.304122	0.177416	0.0243919
0	H	0.113811	0.780668	0.0420297
0	H	0.27472	0.549692	0.540895
0	H	0.777006	0.287895	0.448583
0	H	0.615301	0.0413431	0.948233
0	H	0.778578	0.543722	0.947262
0	H	0.614484	0.788025	0.44833
0	H	0.112848	0.0485447	0.540958
0	H	0.276345	0.283523	0.0411145
0	H	0.0964251	0.705253	0.99434
0	H	0.291389	0.622729	0.492937
0	H	0.794752	0.213238	0.496308
0	H	0.597925	0.115269	0.996082
0	H	0.795965	0.618305	0.995001
0	H	0.597695	0.715815	0.49632
0	H	0.0951046	0.12371	0.493265
0	H	0.293843	0.208834	0.99333
0	C	0.115732	0.487661	0.0348292
0	C	0.272209	0.842247	0.532948
0	C	0.775303	0.995059	0.456063
0	C	0.617851	0.334057	0.956033
0	C	0.776531	0.836574	0.954705
0	C	0.617082	0.495593	0.456524
0	C	0.114445	0.341517	0.533628
0	C	0.274087	0.99068	0.0335679
0	H	0.0813874	0.376071	0.025435
0	H	0.306188	0.953646	0.523061
0	H	0.809653	0.883995	0.465681
0	H	0.583748	0.445542	0.965751
0	H	0.810821	0.948094	0.964214
0	H	0.583077	0.384356	0.466464
0	H	0.080033	0.452531	0.524058
0	H	0.308283	0.879204	0.0239612
0	H	0.164867	0.469047	0.0194066
0	H	0.222889	0.85936	0.51763
0	H	0.726163	0.976865	0.471503
0	H	0.667029	0.351037	0.971538
0	H	0.727365	0.854654	0.97013
0	H	0.666354	0.478904	0.471916
0	H	0.163585	0.360063	0.518207
0	H	0.224937	0.97302	0.0180758
