#******************************************
#
# CIF file created by Zeo++
# Zeo++ is an open source package to
# analyze microporous materials
#
#*******************************************

_cell_length_a		14.2011(0)
_cell_length_b		6.31118(0)
_cell_length_c		14.443(0)
_cell_angle_alpha		90(0)
_cell_angle_beta		95.4627(0)
_cell_angle_gamma		90(0)

_symmetry_space_group_name_H-M		'P1'
_symmetry_Int_Tables_number		1
_symmetry_cell_setting		Monoclinic

loop_
_symmetry_equiv_pos_as_xyz
'+x,+y,+z'

loop_
_atom_site_label
_atom_site_type_symbol
_atom_site_fract_x
_atom_site_fract_y
_atom_site_fract_z
0	C	0.232463	0.992543	0.273366
0	C	0.711027	0.49591	0.728513
0	H	0.201588	0.899317	0.329101
0	H	0.74103	0.402677	0.672226
0	C	0.233606	0.234881	0.296229
0	C	0.710202	0.738157	0.705741
0	H	0.159329	0.296869	0.296449
0	H	0.784386	0.79984	0.704408
0	C	0.282471	0.351478	0.218813
0	C	0.662607	0.855276	0.783851
0	H	0.280842	0.527783	0.227115
0	H	0.664575	0.0315615	0.775736
0	C	0.378365	0.265751	0.19973
0	C	0.566768	0.770581	0.80383
0	C	0.454512	0.392557	0.203601
0	C	0.490832	0.897933	0.800214
0	H	0.447254	0.554518	0.231865
0	H	0.498396	0.0603168	0.772438
0	C	0.549286	0.354349	0.175324
0	C	0.39584	0.859522	0.82792
0	C	0.623129	0.507621	0.21414
0	C	0.322301	0.0134	0.789077
0	C	0.726448	0.469155	0.200369
0	C	0.219101	0.977667	0.80427
0	H	0.770723	0.509878	0.265732
0	H	0.173993	0.0229479	0.740049
0	H	0.748498	0.583062	0.147807
0	H	0.199087	0.0897911	0.858554
0	C	0.743877	0.241873	0.170791
0	C	0.200814	0.74942	0.831842
0	C	0.836798	0.195382	0.124019
0	C	0.107949	0.702204	0.878652
0	C	0.970775	0.363473	0.197873
0	C	0.973867	0.874464	0.807269
0	H	0.0462862	0.317299	0.206121
0	H	0.898319	0.828645	0.799681
0	H	0.95173	0.441901	0.261698
0	H	0.99204	0.95536	0.743669
0	C	0.939882	0.486061	0.108476
0	C	0.00599735	0.993414	0.89731
0	H	0.913643	0.64862	0.120721
0	H	0.0325393	0.156232	0.885908
0	H	0.994039	0.488342	0.0581183
0	H	0.952388	0.994491	0.948333
0	C	0.816022	0.997178	0.0636855
0	C	0.128073	0.501483	0.93747
0	H	0.847851	0.855491	0.100348
0	H	0.0947276	0.361754	0.900346
0	H	0.849242	0.00959748	0.997443
0	H	0.0958922	0.512727	0.00430548
0	C	0.707149	0.982309	0.0472703
0	C	0.236897	0.482578	0.952211
0	H	0.683125	0.967741	0.972161
0	H	0.261851	0.460945	0.0267339
0	H	0.680296	0.841458	0.0816842
0	H	0.262196	0.344218	0.9148
0	C	0.670139	0.189366	0.0867989
0	C	0.27442	0.691884	0.915206
0	H	0.675173	0.315868	0.03141
0	H	0.269508	0.815066	0.972046
0	C	0.571255	0.202605	0.113811
0	C	0.373441	0.70683	0.888833
0	C	0.498892	0.0562972	0.0670816
0	C	0.445612	0.561169	0.936343
0	H	0.528472	0.951619	0.0152272
0	H	0.415606	0.457218	0.988199
0	H	0.442317	0.14963	0.0261796
0	H	0.501648	0.655452	0.977634
0	C	0.454724	0.922664	0.139881
0	C	0.490418	0.427118	0.864172
0	H	0.431944	0.76737	0.109363
0	H	0.513806	0.272837	0.895382
0	H	0.50834	0.886378	0.199682
0	H	0.436879	0.388787	0.80461
0	C	0.369923	0.0324974	0.175559
0	C	0.574837	0.537182	0.827836
0	C	0.331807	0.912647	0.257319
0	C	0.611707	0.417367	0.745388
0	H	0.329468	0.738413	0.243932
0	H	0.613569	0.242991	0.758281
0	H	0.380319	0.935251	0.321768
0	H	0.562715	0.441581	0.681365
0	C	0.208611	0.0986368	0.107671
0	C	0.736887	0.600899	0.894202
0	H	0.164538	0.0950708	0.0396813
0	H	0.781549	0.596371	0.961803
0	C	0.414399	0.285162	0.540283
0	C	0.5307	0.790517	0.461255
0	H	0.441383	0.132523	0.516199
0	H	0.503625	0.637719	0.485126
0	H	0.413646	0.276721	0.616842
0	H	0.531185	0.782575	0.384697
0	H	0.463933	0.411301	0.522958
0	H	0.481448	0.916871	0.479078
0	C	0.20389	0.203927	0.555355
0	C	0.740585	0.704817	0.446381
0	H	0.131418	0.258931	0.535643
0	H	0.813169	0.760324	0.465033
0	H	0.222465	0.23618	0.630297
0	H	0.721028	0.736313	0.371585
0	H	0.20614	0.0316588	0.544632
0	H	0.738666	0.53274	0.457483
0	C	0.270333	0.63655	0.49731
0	C	0.679109	0.13743	0.508559
0	H	0.326951	0.729471	0.469973
0	H	0.622831	0.232748	0.535227
0	H	0.267874	0.679868	0.571292
0	H	0.685415	0.186278	0.435962
0	H	0.202702	0.68191	0.459055
0	H	0.746281	0.174122	0.550017
0	C	0.739471	0.0925683	0.253776
0	C	0.204324	0.604053	0.747407
0	H	0.684845	0.139488	0.298831
0	H	0.258396	0.652944	0.702026
0	H	0.807414	0.0887185	0.297161
0	H	0.136034	0.602196	0.704589
0	H	0.721982	0.929115	0.232699
0	H	0.221818	0.439537	0.766907
0	C	0.101495	0.820396	0.165782
0	C	0.842936	0.322575	0.833741
0	H	0.0658853	0.8237	0.0941268
0	H	0.87966	0.323786	0.904864
0	N	0.170985	0.976332	0.183603
0	N	0.773275	0.478487	0.817689
0	O	0.279876	0.272497	0.382721
0	O	0.662779	0.77335	0.619516
0	O	0.602361	0.668502	0.254383
0	O	0.343041	0.173417	0.748176
0	O	0.918924	0.16484	0.187107
0	O	0.0255095	0.675355	0.815762
0	O	0.860105	0.369464	0.0639957
0	O	0.0857499	0.874445	0.940199
0	O	0.298928	0.0188305	0.0931182
0	O	0.646579	0.522533	0.909619
0	O	0.217203	0.315349	0.135473
0	O	0.728828	0.817772	0.866408
0	O	0.0820906	0.696758	0.226077
0	O	0.861266	0.200856	0.772266
0	Si	0.291911	0.346102	0.490991
0	Si	0.653329	0.848405	0.511155
