#******************************************
#
# CIF file created by Zeo++
# Zeo++ is an open source package to
# analyze microporous materials
#
#*******************************************

_cell_length_a		14(0)
_cell_length_b		14.2679(0)
_cell_length_c		10.2096(0)
_cell_angle_alpha		90(0)
_cell_angle_beta		90(0)
_cell_angle_gamma		122.733(0)

_symmetry_space_group_name_H-M		'P1'
_symmetry_Int_Tables_number		1
_symmetry_cell_setting		Monoclinic

loop_
_symmetry_equiv_pos_as_xyz
'+x,+y,+z'

loop_
_atom_site_label
_atom_site_type_symbol
_atom_site_fract_x
_atom_site_fract_y
_atom_site_fract_z
0	C	0.797907	0.285449	0.546775
0	C	0.746981	0.504482	0.869851
0	C	0.513892	0.214314	0.208316
0	C	0.248473	0.722098	0.0462129
0	C	0.302185	0.498849	0.37387
0	C	0.532949	0.787775	0.709604
0	H	0.841251	0.341162	0.636463
0	H	0.68887	0.486288	0.958114
0	H	0.519935	0.16786	0.296586
0	H	0.205995	0.665241	0.135072
0	H	0.360926	0.51904	0.462289
0	H	0.5265	0.834568	0.797276
0	N	0.674033	0.201881	0.578482
0	N	0.825005	0.464005	0.900103
0	N	0.551544	0.330898	0.251354
0	N	0.373087	0.803634	0.0764422
0	N	0.222981	0.538157	0.403102
0	N	0.489994	0.669433	0.751624
0	H	0.629869	0.157801	0.492559
0	H	0.865847	0.461315	0.814216
0	H	0.554716	0.37944	0.172088
0	H	0.41781	0.844382	0.988856
0	H	0.179495	0.535824	0.317241
0	H	0.473461	0.617609	0.669751
0	H	0.635751	0.243764	0.610336
0	H	0.777145	0.381858	0.936312
0	H	0.634004	0.371436	0.290155
0	H	0.40897	0.760584	0.112133
0	H	0.270787	0.621685	0.433875
0	H	0.413067	0.636002	0.80202
0	H	0.661074	0.144672	0.65306
0	H	0.886377	0.511342	0.972678
0	H	0.498379	0.332994	0.323692
0	H	0.388488	0.863833	0.148011
0	H	0.164034	0.493226	0.478865
0	H	0.547258	0.663244	0.813905
0	C	0.858026	0.227697	0.506593
0	C	0.814951	0.627467	0.835361
0	C	0.393758	0.154228	0.154388
0	C	0.189287	0.781733	0.0108491
0	C	0.235394	0.375212	0.342906
0	C	0.65448	0.845767	0.660498
0	H	0.849826	0.168413	0.581246
0	H	0.878316	0.678479	0.910422
0	H	0.333655	0.152286	0.225195
0	H	0.199695	0.840649	0.0874319
0	H	0.167855	0.326039	0.414599
0	H	0.711769	0.846364	0.734547
0	H	0.949974	0.29071	0.49592
0	H	0.757119	0.657903	0.827577
0	H	0.363403	0.0669537	0.131431
0	H	0.0969813	0.719876	0.00102296
0	H	0.293204	0.344394	0.345503
0	H	0.687051	0.933376	0.636683
0	H	0.827199	0.183059	0.413088
0	H	0.859723	0.644553	0.741337
0	H	0.388708	0.19366	0.0641185
0	H	0.219447	0.827521	0.917903
0	H	0.196066	0.356075	0.244988
0	H	0.661683	0.80634	0.571596
0	C	0.795507	0.354109	0.432546
0	C	0.67494	0.434669	0.75208
0	C	0.59835	0.228437	0.101615
0	C	0.248534	0.654138	0.929391
0	C	0.37395	0.568138	0.255561
0	C	0.453143	0.777168	0.598822
0	O	0.704922	0.315322	0.37143
0	O	0.707526	0.382163	0.689566
0	O	0.661741	0.321968	0.0526426
0	O	0.336258	0.695741	0.861835
0	O	0.343805	0.623747	0.195349
0	O	0.394009	0.685657	0.543457
0	N	0.890619	0.453778	0.401275
0	N	0.579465	0.432581	0.721476
0	N	0.596622	0.13602	0.0630204
0	N	0.155161	0.551479	0.905948
0	N	0.466664	0.566284	0.220855
0	N	0.453553	0.869338	0.562614
0	H	0.966401	0.48477	0.452892
0	H	0.555102	0.479078	0.776326
0	H	0.554607	0.0631728	0.120258
0	H	0.0814306	0.519805	0.963353
0	H	0.491654	0.520691	0.276504
0	H	0.493227	0.94121	0.621655
0	C	0.890762	0.513322	0.281553
0	C	0.510443	0.368106	0.606474
0	C	0.667529	0.140393	0.952198
0	C	0.154225	0.484666	0.793685
0	C	0.533834	0.629978	0.104381
0	C	0.384905	0.864256	0.448716
0	H	0.814693	0.454547	0.219424
0	H	0.560784	0.343877	0.545156
0	H	0.689134	0.212861	0.887564
0	H	0.230562	0.538606	0.729971
0	H	0.482273	0.65362	0.0446137
0	H	0.367128	0.792912	0.38393
0	C	0.999628	0.544772	0.204429
0	C	0.488105	0.444431	0.521621
0	C	0.59304	0.0299614	0.87488
0	C	0.0458725	0.450158	0.712854
0	C	0.554698	0.553752	0.0177996
0	C	0.457894	0.975547	0.373065
0	O	0.0880731	0.578232	0.269606
0	O	0.478058	0.517765	0.571952
0	O	0.55247	0.940821	0.937268
0	O	0.954696	0.41118	0.774644
0	O	0.559113	0.47645	0.065911
0	O	0.496243	0.0640066	0.436231
0	O	0.993487	0.536737	0.0814776
0	O	0.48118	0.426714	0.399198
0	O	0.581197	0.0357552	0.753433
0	O	0.0552323	0.462563	0.590507
0	O	0.567253	0.57544	0.896139
0	O	0.469167	0.970609	0.25137
0	C	0.887099	0.617466	0.315387
0	C	0.397359	0.26052	0.648556
0	C	0.778585	0.150196	0.997605
0	C	0.156703	0.382791	0.842158
0	C	0.647316	0.738154	0.144196
0	C	0.271742	0.852227	0.488766
0	H	0.956999	0.669481	0.386685
0	H	0.352789	0.285	0.718135
0	H	0.75476	0.0798789	0.0667169
0	H	0.084396	0.334382	0.913035
0	H	0.690553	0.715488	0.218167
0	H	0.293265	0.92201	0.55781
0	C	0.906458	0.685264	0.190544
0	C	0.321819	0.203583	0.528584
0	C	0.838522	0.139904	0.877966
0	C	0.140673	0.308305	0.72524
0	C	0.7247	0.790535	0.024666
0	C	0.214772	0.862974	0.366304
0	H	0.84134	0.636011	0.11645
0	H	0.359827	0.172086	0.461938
0	H	0.870085	0.212217	0.812493
0	H	0.208669	0.352826	0.652675
0	H	0.68719	0.818137	0.951992
0	H	0.189142	0.793422	0.298323
0	H	0.989591	0.714816	0.14676
0	H	0.306168	0.259603	0.472356
0	H	0.782755	0.0639603	0.821663
0	H	0.0595558	0.277409	0.675564
0	H	0.741285	0.732223	0.975819
0	H	0.270145	0.941408	0.314057
0	H	0.902325	0.758382	0.211421
0	H	0.239335	0.131515	0.558676
0	H	0.912292	0.137534	0.908098
0	H	0.142144	0.235626	0.756882
0	H	0.80661	0.864206	0.0530751
0	H	0.137405	0.860128	0.392899
0	C	0.772164	0.582592	0.378321
0	C	0.421457	0.17906	0.717528
0	C	0.856593	0.262049	0.068169
0	C	0.269526	0.421367	0.913452
0	C	0.622774	0.821988	0.20519
0	C	0.190695	0.739775	0.556466
0	H	0.704856	0.548282	0.302234
0	H	0.44527	0.137835	0.643625
0	H	0.886611	0.331904	0.997465
0	H	0.339615	0.45305	0.841198
0	H	0.594345	0.856317	0.127401
0	H	0.14861	0.672546	0.481672
0	H	0.746499	0.514325	0.449765
0	H	0.495542	0.22497	0.783776
0	H	0.807853	0.274608	0.143961
0	H	0.292134	0.49231	0.979414
0	H	0.551751	0.778996	0.275925
0	H	0.238387	0.716505	0.621003
0	C	0.774529	0.678625	0.447645
0	C	0.319831	0.09003	0.796368
0	C	0.96035	0.270841	0.130157
0	C	0.265447	0.329127	0.994121
0	C	0.726147	0.918573	0.274015
0	C	0.0999489	0.742065	0.636765
0	H	0.835475	0.711897	0.528499
0	H	0.295291	0.12694	0.872777
0	H	0.93754	0.197269	0.188372
0	H	0.207421	0.304434	0.0776804
0	H	0.765684	0.889814	0.341671
0	H	0.137723	0.803062	0.716322
0	H	0.690252	0.650416	0.488298
0	H	0.340356	0.0340979	0.843999
0	H	0.00507523	0.34453	0.193476
0	H	0.35036	0.357635	0.0332368
0	H	0.701325	0.967575	0.330363
0	H	0.0410284	0.659868	0.679825
0	H	0.796728	0.747276	0.380031
0	H	0.245646	0.0385559	0.733804
0	H	0.0210904	0.280562	0.0538988
0	H	0.238328	0.254615	0.935173
0	H	0.790833	0.97518	0.20324
0	H	0.0500379	0.763584	0.575767
