#******************************************
#
# CIF file created by Zeo++
# Zeo++ is an open source package to
# analyze microporous materials
#
#*******************************************

_cell_length_a		13.384(0)
_cell_length_b		7.15803(0)
_cell_length_c		7.44137(0)
_cell_angle_alpha		90(0)
_cell_angle_beta		77.1628(0)
_cell_angle_gamma		90(0)

_symmetry_space_group_name_H-M		'P1'
_symmetry_Int_Tables_number		1
_symmetry_cell_setting		Monoclinic

loop_
_symmetry_equiv_pos_as_xyz
'+x,+y,+z'

loop_
_atom_site_label
_atom_site_type_symbol
_atom_site_fract_x
_atom_site_fract_y
_atom_site_fract_z
0	H	0.0464464	0.0288389	0.934654
0	H	0.0414467	0.526882	0.618359
0	H	0.0438102	0.938848	0.120044
0	H	0.050188	0.441041	0.437877
0	H	0.454816	0.841736	0.331163
0	H	0.635785	0.3543	0.234516
0	H	0.636356	0.125005	0.724843
0	H	0.455335	0.612867	0.82072
0	H	0.268596	0.984766	0.123576
0	H	0.817985	0.477915	0.436198
0	H	0.822379	0.982192	0.932077
0	H	0.27315	0.488837	0.619656
0	H	0.0858084	0.256935	0.856915
0	H	0.00325809	0.755434	0.697217
0	H	0.00543049	0.710509	0.198488
0	H	0.0877501	0.212338	0.359075
0	H	0.00204658	0.127614	0.746822
0	H	0.0884602	0.625312	0.803122
0	H	0.0892997	0.841178	0.307132
0	H	0.00266554	0.343187	0.253331
0	H	0.467004	0.864027	0.568639
0	H	0.620576	0.374371	0.998628
0	H	0.62421	0.103198	0.487318
0	H	0.470651	0.592964	0.0564794
0	C	0.261362	0.984912	0.712237
0	C	0.827726	0.486104	0.8461
0	C	0.829565	0.982337	0.343476
0	C	0.26372	0.481025	0.209446
0	C	0.160686	0.0416291	0.682487
0	C	0.929435	0.540383	0.872824
0	C	0.930328	0.925655	0.37286
0	C	0.161935	0.426928	0.183134
0	C	0.320903	0.936139	0.520774
0	C	0.769123	0.440598	0.0389658
0	C	0.770304	0.03105	0.535073
0	C	0.322091	0.526535	0.0164768
0	C	0.0700352	0.115774	0.807775
0	C	0.0193779	0.613966	0.745361
0	C	0.0209528	0.852014	0.247048
0	C	0.0718665	0.353801	0.310955
0	C	0.418388	0.878822	0.471317
0	C	0.671057	0.388128	0.0928741
0	C	0.672809	0.0882133	0.584651
0	C	0.420127	0.579084	0.962355
0	N	0.25233	0.95984	0.4018
0	N	0.839401	0.461229	0.155203
0	N	0.839027	0.00724101	0.653789
0	N	0.251668	0.505808	0.900545
0	N	0.297433	0.969114	0.860528
0	N	0.790446	0.469232	0.699304
0	N	0.793457	0.99796	0.195214
0	N	0.301073	0.497777	0.356299
0	O	0.159829	0.0234254	0.504817
0	O	0.931822	0.522045	0.049852
0	O	0.931506	0.94375	0.550403
0	O	0.159356	0.445222	0.00617434
0	O	0.228031	0.00936628	0.0197743
0	O	0.859138	0.506188	0.538197
0	O	0.862885	0.957496	0.0359254
0	O	0.232304	0.460534	0.517273
