#******************************************
#
# CIF file created by Zeo++
# Zeo++ is an open source package to
# analyze microporous materials
#
#*******************************************

_cell_length_a		14.9737(0)
_cell_length_b		6.02071(0)
_cell_length_c		15.0859(0)
_cell_angle_alpha		90(0)
_cell_angle_beta		120.455(0)
_cell_angle_gamma		90(0)

_symmetry_space_group_name_H-M		'P1'
_symmetry_Int_Tables_number		1
_symmetry_cell_setting		Monoclinic

loop_
_symmetry_equiv_pos_as_xyz
'+x,+y,+z'

loop_
_atom_site_label
_atom_site_type_symbol
_atom_site_fract_x
_atom_site_fract_y
_atom_site_fract_z
0	Br	0.340667	0.36835	0.0811866
0	Br	0.711382	0.860151	0.908823
0	F	0.767384	0.514694	0.62282
0	F	0.284396	0.0164713	0.370421
0	F	0.803366	0.683056	0.759622
0	F	0.249471	0.196042	0.236599
0	F	0.811463	0.333375	0.758373
0	F	0.237546	0.846772	0.231363
0	O	0.331959	0.930734	0.623178
0	O	0.718841	0.426136	0.366878
0	O	0.183578	0.591129	0.693214
0	O	0.866748	0.0839763	0.297299
0	O	0.162663	0.949172	0.639346
0	O	0.888584	0.441866	0.35127
0	O	0.317591	0.348759	0.674188
0	O	0.73206	0.843939	0.316095
0	C	0.474173	0.684265	0.598696
0	C	0.577399	0.185078	0.39236
0	C	0.213432	0.780223	0.667019
0	C	0.837281	0.273712	0.323374
0	C	0.391193	0.904638	0.86039
0	C	0.659433	0.398546	0.12935
0	C	0.436016	0.514781	0.634432
0	C	0.614317	0.0136241	0.356309
0	C	0.4181	0.2577	0.948122
0	C	0.632381	0.750628	0.0407256
0	C	0.321732	0.753954	0.677901
0	C	0.728876	0.24895	0.312247
0	C	0.43086	0.121638	0.880365
0	C	0.619424	0.615214	0.10864
0	C	0.0785354	0.564264	0.684163
0	C	0.971534	0.0559922	0.305868
0	C	0.364654	0.174714	0.994567
0	C	0.686316	0.667171	0.994879
0	C	0.328567	0.537926	0.621179
0	C	0.721685	0.03373	0.369172
0	C	0.639801	0.497241	0.673982
0	C	0.410955	0.00170395	0.318008
0	C	0.338481	0.824419	0.908802
0	C	0.712058	0.317359	0.0810001
0	C	0.242894	0.53249	0.509107
0	C	0.80736	0.0267142	0.481249
0	C	0.408547	0.754512	0.791332
0	C	0.642109	0.249287	0.198728
0	C	0.325809	0.958638	0.977194
0	C	0.724967	0.450882	0.0125249
0	C	0.498176	0.329305	0.683649
0	C	0.551189	0.829436	0.307335
0	C	0.575697	0.676138	0.61835
0	C	0.476115	0.179667	0.373384
0	C	0.0768618	0.715175	0.764074
0	C	0.97205	0.203031	0.224219
0	C	0.600085	0.320634	0.703902
0	C	0.449468	0.823312	0.287848
0	C	0.751642	0.504687	0.703015
0	C	0.299411	0.0126953	0.289692
0	C	0.0836072	0.320193	0.711131
0	C	0.966376	0.810825	0.280926
0	C	0.996235	0.617458	0.574372
0	C	0.0544689	0.114481	0.414695
0	H	0.32171	0.0886923	0.646012
0	H	0.728293	0.584016	0.343525
0	H	0.249519	0.356841	0.673313
0	H	0.800181	0.85132	0.316917
0	H	0.424604	0.826306	0.557393
0	H	0.627749	0.326538	0.433295
0	H	0.449561	0.426345	0.963782
0	H	0.600615	0.918958	0.0245045
0	H	0.470763	0.186151	0.841834
0	H	0.578929	0.680161	0.146468
0	H	0.306396	0.656274	0.89221
0	H	0.743792	0.148922	0.0976219
0	H	0.16613	0.504649	0.500147
0	H	0.884367	0.00253307	0.490258
0	H	0.255215	0.398315	0.467099
0	H	0.795561	0.889186	0.522109
0	H	0.239005	0.689442	0.469961
0	H	0.810382	0.181306	0.521506
0	H	0.420871	0.580271	0.820917
0	H	0.629479	0.0750883	0.169314
0	H	0.48212	0.799038	0.793751
0	H	0.56863	0.294773	0.196319
0	H	0.286617	0.893449	0.0161683
0	H	0.764203	0.384973	0.97373
0	H	0.466963	0.190289	0.706835
0	H	0.581527	0.689582	0.2838
0	H	0.604741	0.809869	0.590872
0	H	0.447937	0.314406	0.401177
0	H	0.0930638	0.888194	0.754291
0	H	0.954173	0.376134	0.231835
0	H	0.134505	0.66581	0.842794
0	H	0.915152	0.148788	0.146089
0	H	0.000962218	0.711767	0.75858
0	H	0.0481657	0.201513	0.230156
0	H	0.647785	0.176513	0.743483
0	H	0.400986	0.679833	0.248738
0	H	0.0749289	0.211665	0.648444
0	H	0.976234	0.704979	0.344826
0	H	0.0224238	0.275922	0.727629
0	H	0.0265722	0.764319	0.263357
0	H	0.158131	0.276605	0.779488
0	H	0.891202	0.765459	0.213726
0	H	0.992153	0.79633	0.557648
0	H	0.0579855	0.294328	0.429271
0	H	0.918906	0.564771	0.557532
0	H	0.131777	0.0621098	0.431332
0	H	0.00910406	0.531634	0.517371
0	H	0.04273	0.0329262	0.473274
