#******************************************
#
# CIF file created by Zeo++
# Zeo++ is an open source package to
# analyze microporous materials
#
#*******************************************

_cell_length_a		34.7107(0)
_cell_length_b		7.01354(0)
_cell_length_c		9.02218(0)
_cell_angle_alpha		90(0)
_cell_angle_beta		92.9473(0)
_cell_angle_gamma		90(0)

_symmetry_space_group_name_H-M		'P1'
_symmetry_Int_Tables_number		1
_symmetry_cell_setting		Monoclinic

loop_
_symmetry_equiv_pos_as_xyz
'+x,+y,+z'

loop_
_atom_site_label
_atom_site_type_symbol
_atom_site_fract_x
_atom_site_fract_y
_atom_site_fract_z
0	O	0.774983	0.302368	0.467606
0	O	0.231302	0.302311	0.622685
0	O	0.271248	0.809076	0.468215
0	O	0.735051	0.808536	0.622288
0	O	0.744244	0.474225	0.27976
0	O	0.262085	0.474325	0.810352
0	O	0.241471	0.985989	0.28135
0	O	0.764865	0.985581	0.80907
0	O	0.862732	0.894348	0.241242
0	O	0.143496	0.894222	0.849021
0	O	0.361011	0.390163	0.23552
0	O	0.645312	0.389995	0.854749
0	O	0.969217	0.814441	0.897222
0	O	0.0370159	0.813747	0.192918
0	O	0.468035	0.285466	0.894824
0	O	0.538264	0.285337	0.195452
0	H	0.997353	0.788497	0.880912
0	H	0.00884154	0.788499	0.209014
0	H	0.496248	0.260061	0.879379
0	H	0.510032	0.260291	0.210774
0	O	0.86561	0.751165	0.594527
0	O	0.140617	0.750751	0.495695
0	O	0.363968	0.24079	0.591764
0	O	0.642309	0.240612	0.498593
0	O	0.893248	0.0405289	0.6637
0	O	0.112924	0.04003	0.426594
0	O	0.394006	0.524768	0.659886
0	O	0.612273	0.524595	0.430529
0	O	0.974268	0.771681	0.353283
0	O	0.0319518	0.770466	0.73687
0	O	0.473974	0.247656	0.352946
0	O	0.532335	0.246884	0.737387
0	N	0.926972	0.832326	0.511023
0	N	0.0792343	0.83153	0.579149
0	N	0.426056	0.307877	0.508564
0	N	0.580222	0.30754	0.581738
0	C	0.738025	0.357265	0.523186
0	C	0.268251	0.357044	0.566971
0	C	0.234321	0.865727	0.523043
0	C	0.77193	0.86547	0.567253
0	H	0.745189	0.438844	0.626067
0	H	0.261085	0.438347	0.464001
0	H	0.241448	0.947878	0.625759
0	H	0.764753	0.947475	0.464581
0	H	0.722498	0.223824	0.547813
0	H	0.283767	0.223728	0.54233
0	H	0.218487	0.733307	0.548126
0	H	0.787794	0.733247	0.542001
0	C	0.718106	0.476394	0.399935
0	C	0.288178	0.476482	0.69002
0	C	0.214607	0.98449	0.399011
0	C	0.791644	0.984491	0.691119
0	H	0.690274	0.416	0.35528
0	H	0.316038	0.416266	0.734669
0	H	0.187201	0.922077	0.352206
0	H	0.819132	0.922293	0.737788
0	H	0.714683	0.628381	0.429641
0	H	0.29157	0.628427	0.660227
0	H	0.210419	0.135834	0.428847
0	H	0.795736	0.135866	0.661234
0	C	0.775756	0.344497	0.312507
0	C	0.230568	0.344595	0.777777
0	C	0.272046	0.850626	0.31291
0	C	0.734269	0.850354	0.777554
0	C	0.771162	0.16383	0.215162
0	C	0.235182	0.163946	0.875125
0	C	0.265989	0.67032	0.216022
0	C	0.740298	0.67005	0.874499
0	H	0.741204	0.149479	0.167924
0	H	0.265134	0.149831	0.922532
0	H	0.235896	0.661418	0.169683
0	H	0.770369	0.661132	0.921002
0	H	0.777243	0.0352886	0.283406
0	H	0.229172	0.0353669	0.806894
0	H	0.271175	0.541165	0.28457
0	H	0.735135	0.540883	0.805912
0	C	0.799885	0.186196	0.0909874
0	C	0.206413	0.186174	0.999192
0	C	0.294786	0.687005	0.091589
0	C	0.711471	0.686772	0.998768
0	H	0.825035	0.0905164	0.110227
0	H	0.181249	0.0905573	0.979732
0	H	0.319461	0.588399	0.111765
0	H	0.686785	0.588297	0.978456
0	H	0.786396	0.148352	0.981296
0	H	0.219871	0.14809	0.108905
0	H	0.281187	0.648809	0.982179
0	H	0.725044	0.648492	0.108195
0	C	0.812185	0.396698	0.0994723
0	C	0.194116	0.39667	0.990808
0	C	0.30816	0.896117	0.0985089
0	C	0.698124	0.895917	0.991874
0	H	0.787272	0.483365	0.0480104
0	H	0.219009	0.483329	0.0423746
0	H	0.283544	0.985387	0.0475027
0	H	0.722737	0.985133	0.0429902
0	C	0.814576	0.438165	0.270127
0	C	0.191744	0.438225	0.820157
0	C	0.311243	0.938467	0.269032
0	C	0.695076	0.938314	0.82137
0	C	0.848161	0.33804	0.354272
0	C	0.158167	0.338051	0.735958
0	C	0.344433	0.834141	0.352266
0	C	0.661885	0.834088	0.73807
0	H	0.848512	0.183319	0.332707
0	H	0.157808	0.18353	0.757456
0	H	0.344431	0.680161	0.327985
0	H	0.661878	0.680152	0.762257
0	H	0.846472	0.357783	0.475441
0	H	0.159878	0.357723	0.614792
0	H	0.342604	0.850926	0.47365
0	H	0.663729	0.850946	0.616697
0	H	0.876117	0.393891	0.323329
0	H	0.130205	0.393943	0.766809
0	H	0.37259	0.88913	0.322918
0	H	0.633718	0.889068	0.767358
0	C	0.81748	0.653646	0.29196
0	C	0.188813	0.653719	0.798372
0	C	0.315315	0.153554	0.29044
0	C	0.691029	0.15341	0.800014
0	H	0.789573	0.723079	0.257931
0	H	0.216708	0.723315	0.832523
0	H	0.287651	0.226354	0.258316
0	H	0.7187	0.226236	0.832338
0	H	0.822568	0.68795	0.412727
0	H	0.183744	0.688028	0.677592
0	H	0.32114	0.187449	0.410849
0	H	0.685252	0.187378	0.679597
0	C	0.849458	0.737845	0.205386
0	C	0.156799	0.737771	0.884881
0	C	0.347265	0.233991	0.201683
0	C	0.659056	0.233827	0.888649
0	C	0.85182	0.492582	0.747747
0	C	0.154459	0.492309	0.342439
0	C	0.347839	0.986688	0.745658
0	C	0.65846	0.986603	0.344651
0	H	0.850844	0.398088	0.647193
0	H	0.155448	0.397806	0.44297
0	H	0.345795	0.893259	0.644588
0	H	0.660521	0.893207	0.445745
0	H	0.822717	0.558022	0.747079
0	H	0.183554	0.557819	0.343073
0	H	0.319371	0.0584353	0.746247
0	H	0.686921	0.0584046	0.344007
0	C	0.859199	0.37105	0.887669
0	C	0.147084	0.370762	0.202512
0	C	0.354425	0.863225	0.885031
0	C	0.651854	0.863138	0.205297
0	H	0.843955	0.232756	0.871031
0	H	0.162346	0.232512	0.219104
0	H	0.3381	0.72797	0.868551
0	H	0.668156	0.727809	0.221747
0	H	0.890321	0.331508	0.901106
0	H	0.115964	0.331169	0.189098
0	H	0.385193	0.817933	0.897888
0	H	0.621082	0.817974	0.192477
0	C	0.846901	0.469581	0.0251054
0	C	0.159378	0.46939	0.0650849
0	C	0.34307	0.964161	0.0228707
0	C	0.663209	0.964	0.0674912
0	C	0.863829	0.632454	0.0767831
0	C	0.142438	0.632226	0.0134128
0	C	0.360994	0.124886	0.0737315
0	C	0.645303	0.124806	0.016523
0	C	0.897045	0.723946	0.00382592
0	C	0.109203	0.723602	0.0863565
0	C	0.394846	0.210622	0.00105166
0	C	0.611456	0.210632	0.0892762
0	H	0.921518	0.6228	0.994638
0	H	0.084743	0.622292	0.0955337
0	H	0.418656	0.105464	0.992346
0	H	0.58762	0.105456	0.0979509
0	H	0.909566	0.841553	0.0742373
0	H	0.096674	0.841139	0.0159426
0	H	0.408067	0.326527	0.0714821
0	H	0.598254	0.32654	0.0188509
0	C	0.884184	0.802571	0.850817
0	C	0.122042	0.802246	0.239375
0	C	0.382681	0.290691	0.847833
0	C	0.623602	0.29065	0.242512
0	H	0.854432	0.865896	0.855856
0	H	0.151802	0.865665	0.234334
0	H	0.353489	0.359998	0.85242
0	H	0.652814	0.360012	0.237935
0	C	0.882029	0.648386	0.727386
0	C	0.124228	0.648003	0.362778
0	C	0.379387	0.13581	0.725158
0	C	0.626911	0.135698	0.365166
0	C	0.921992	0.572285	0.69134
0	C	0.0842687	0.571741	0.3987
0	C	0.418761	0.0513392	0.690305
0	C	0.587529	0.0511737	0.399873
0	H	0.936199	0.504236	0.790804
0	H	0.0700345	0.503569	0.299085
0	H	0.432306	0.981917	0.790608
0	H	0.574001	0.981915	0.299504
0	H	0.919382	0.460442	0.604763
0	H	0.0868693	0.459738	0.485133
0	H	0.415382	0.938865	0.604605
0	H	0.590903	0.93843	0.485533
0	C	0.911119	0.962381	0.800758
0	C	0.095088	0.961919	0.289468
0	C	0.410995	0.444392	0.797647
0	C	0.5953	0.444288	0.29274
0	H	0.912126	0.0873484	0.876508
0	H	0.0940815	0.0868994	0.213828
0	H	0.412865	0.569503	0.872875
0	H	0.593425	0.569485	0.217491
0	C	0.951828	0.892569	0.764096
0	C	0.0543871	0.891921	0.326062
0	C	0.451159	0.366187	0.761722
0	C	0.555131	0.366055	0.328587
0	H	0.96987	0.0128073	0.726651
0	H	0.0363197	0.0120603	0.36356
0	H	0.470107	0.482569	0.723752
0	H	0.536173	0.482407	0.366583
0	C	0.947468	0.737061	0.640822
0	C	0.0587597	0.736332	0.44928
0	C	0.445641	0.210191	0.639211
0	C	0.560648	0.209957	0.451031
0	H	0.976624	0.684759	0.610335
0	H	0.0296038	0.683947	0.479678
0	H	0.47437	0.151931	0.609581
0	H	0.531905	0.151666	0.480615
0	C	0.88844	0.904976	0.546241
0	C	0.117762	0.90442	0.544004
0	C	0.388158	0.389036	0.543043
0	C	0.618134	0.388783	0.547325
0	H	0.871584	0.97814	0.453679
0	H	0.134585	0.977595	0.636617
0	H	0.37204	0.464266	0.450011
0	H	0.634243	0.464099	0.640398
0	C	0.942242	0.83959	0.371275
0	C	0.0639471	0.838719	0.718858
0	C	0.442045	0.317013	0.37008
0	C	0.56423	0.31656	0.720218
0	H	0.924091	0.908318	0.281761
0	H	0.0820712	0.907637	0.808372
0	H	0.424311	0.388297	0.280651
0	H	0.581946	0.38803	0.809622
