#******************************************
#
# CIF file created by Zeo++
# Zeo++ is an open source package to
# analyze microporous materials
#
#*******************************************

_cell_length_a		22.673(0)
_cell_length_b		15.0569(0)
_cell_length_c		7.84286(0)
_cell_angle_alpha		90(0)
_cell_angle_beta		90.9998(0)
_cell_angle_gamma		90(0)

_symmetry_space_group_name_H-M		'P1'
_symmetry_Int_Tables_number		1
_symmetry_cell_setting		Monoclinic

loop_
_symmetry_equiv_pos_as_xyz
'+x,+y,+z'

loop_
_atom_site_label
_atom_site_type_symbol
_atom_site_fract_x
_atom_site_fract_y
_atom_site_fract_z
0	C	0.55544	0.593581	0.213279
0	C	0.567614	0.593575	0.709466
0	C	0.0554067	0.094772	0.2134
0	C	0.067521	0.0946454	0.709296
0	N	0.510663	0.653628	0.255427
0	N	0.612375	0.653633	0.66712
0	N	0.0109101	0.154677	0.258509
0	N	0.111842	0.154637	0.663289
0	C	0.455419	0.624499	0.324013
0	C	0.667591	0.624507	0.598237
0	C	0.955977	0.1252	0.328621
0	C	0.166644	0.125279	0.59212
0	C	0.450854	0.527414	0.341527
0	C	0.672187	0.527398	0.581241
0	C	0.951919	0.0281843	0.348528
0	C	0.170953	0.0282209	0.573544
0	N	0.399581	0.494339	0.404531
0	N	0.723486	0.494292	0.518226
0	N	0.901087	0.99476	0.414072
0	N	0.221826	0.99485	0.508177
0	C	0.396186	0.406586	0.427535
0	C	0.726847	0.406517	0.495489
0	C	0.898109	0.907031	0.437581
0	C	0.224944	0.907067	0.485352
0	C	0.444312	0.34868	0.384212
0	C	0.678738	0.348633	0.53892
0	C	0.946308	0.849493	0.39295
0	C	0.176823	0.849474	0.53036
0	N	0.493975	0.379246	0.317171
0	N	0.629075	0.379227	0.605857
0	N	0.995477	0.880321	0.323549
0	N	0.12763	0.880268	0.59971
0	C	0.498795	0.470847	0.296038
0	C	0.624264	0.470857	0.62684
0	C	0.99977	0.971945	0.301331
0	C	0.123225	0.97186	0.621481
0	N	0.550726	0.50424	0.231341
0	N	0.572335	0.504234	0.691499
0	N	0.0511185	0.00549327	0.233203
0	N	0.0719192	0.0053621	0.689814
0	O	0.419556	0.680427	0.362254
0	O	0.703343	0.680457	0.559454
0	O	0.919728	0.180871	0.36537
0	O	0.202527	0.1811	0.553374
0	N	0.608826	0.624208	0.147816
0	N	0.514243	0.624214	0.77494
0	N	0.108014	0.125085	0.142583
0	N	0.0149402	0.124858	0.780538
0	C	0.632053	0.712894	0.165489
0	C	0.490969	0.712833	0.756837
0	C	0.131208	0.213978	0.154798
0	C	0.99159	0.213627	0.767964
0	O	0.601775	0.770255	0.228652
0	O	0.52121	0.770163	0.693363
0	O	0.10151	0.271811	0.218638
0	O	0.0211571	0.271499	0.703706
0	C	0.692507	0.721608	0.0995975
0	C	0.430492	0.721567	0.822597
0	C	0.190888	0.222127	0.0832854
0	C	0.931905	0.221657	0.839513
0	C	0.339546	0.372942	0.503715
0	C	0.783462	0.372761	0.419267
0	C	0.841823	0.87249	0.514558
0	C	0.281249	0.872542	0.408456
0	O	0.340813	0.276427	0.506954
0	O	0.782053	0.276259	0.415894
0	O	0.843978	0.775965	0.518846
0	O	0.279109	0.776018	0.404073
0	C	0.323894	0.231415	0.359029
0	C	0.798853	0.231055	0.563704
0	C	0.827174	0.729858	0.371962
0	C	0.295854	0.729831	0.55088
0	O	0.309862	0.272412	0.231365
0	O	0.812863	0.27189	0.691613
0	O	0.813031	0.769958	0.243393
0	O	0.309992	0.769839	0.679581
0	C	0.32725	0.135097	0.388534
0	C	0.79541	0.134799	0.533765
0	C	0.830928	0.63378	0.403759
0	C	0.292064	0.633776	0.518777
0	C	0.334681	0.404226	0.690653
0	C	0.788344	0.404036	0.232351
0	C	0.836814	0.903488	0.701586
0	C	0.286259	0.903515	0.221351
0	O	0.382784	0.362039	0.786227
0	O	0.740204	0.36198	0.136739
0	O	0.885279	0.861608	0.79597
0	O	0.23773	0.861774	0.127031
0	C	0.430634	0.415131	0.830805
0	C	0.692439	0.415231	0.0921034
0	C	0.932959	0.914935	0.840719
0	C	0.190061	0.915188	0.082544
0	O	0.425793	0.495595	0.826365
0	O	0.697344	0.495684	0.0966776
0	O	0.927612	0.995359	0.840914
0	O	0.195515	0.995594	0.0824076
0	C	0.482075	0.359737	0.876564
0	C	0.640903	0.360033	0.046047
0	C	0.984987	0.859589	0.880676
0	C	0.137998	0.859938	0.0426078
0	C	0.276755	0.375534	0.77424
0	C	0.846217	0.375186	0.148695
0	C	0.779086	0.873453	0.78472
0	C	0.343933	0.873294	0.13815
0	O	0.233194	0.411697	0.653345
0	O	0.889829	0.411459	0.269341
0	O	0.735355	0.909202	0.663876
0	O	0.387732	0.909092	0.258723
0	C	0.177886	0.373729	0.64007
0	C	0.945166	0.373566	0.282237
0	C	0.679841	0.871682	0.652943
0	C	0.443271	0.871638	0.269356
0	O	0.162371	0.317758	0.741403
0	O	0.960619	0.317688	0.180617
0	O	0.664435	0.816341	0.755652
0	O	0.458653	0.816356	0.166493
0	C	0.145778	0.414027	0.49398
0	C	0.977359	0.41383	0.42821
0	C	0.647405	0.91178	0.507219
0	C	0.475739	0.911774	0.414997
0	C	0.267707	0.415169	0.951125
0	C	0.85521	0.414609	0.97162
0	C	0.769594	0.912156	0.962076
0	C	0.353382	0.911819	0.960615
0	O	0.278549	0.510699	0.93821
0	O	0.844889	0.51026	0.984746
0	O	0.782584	0.00717199	0.952256
0	O	0.340837	0.00696645	0.970635
0	C	0.26151	0.562388	0.0742825
0	C	0.861893	0.561783	0.848432
0	C	0.768512	0.0580119	0.0923649
0	C	0.3548	0.0576915	0.830323
0	O	0.239141	0.529342	0.198523
0	O	0.883637	0.528519	0.723444
0	O	0.745818	0.0249659	0.216076
0	O	0.376801	0.0244425	0.705701
0	C	0.274693	0.656995	0.0394103
0	C	0.849593	0.656569	0.884153
0	C	0.785355	0.151743	0.0623698
0	C	0.338924	0.151726	0.861412
0	H	0.515573	0.722874	0.233348
0	H	0.607433	0.722863	0.689032
0	H	0.0156932	0.224142	0.23703
0	H	0.107007	0.224073	0.684547
0	H	0.440886	0.276603	0.406329
0	H	0.682157	0.276535	0.516978
0	H	0.943324	0.777443	0.415974
0	H	0.179874	0.777404	0.507602
0	H	0.638155	0.57328	0.108881
0	H	0.484933	0.573285	0.814098
0	H	0.136856	0.0739316	0.101558
0	H	0.986222	0.0736641	0.821906
0	H	0.71774	0.658935	0.0942063
0	H	0.405283	0.65887	0.828411
0	H	0.215984	0.159372	0.0770425
0	H	0.90696	0.158806	0.846537
0	H	0.691264	0.749392	0.968068
0	H	0.431701	0.749572	0.953953
0	H	0.188389	0.249352	0.95144
0	H	0.934378	0.249238	0.971114
0	H	0.719463	0.767759	0.178834
0	H	0.403522	0.767556	0.743079
0	H	0.218656	0.268716	0.159353
0	H	0.904022	0.267909	0.763113
0	H	0.299938	0.395395	0.426561
0	H	0.823099	0.395091	0.4964
0	H	0.801947	0.894	0.437453
0	H	0.321113	0.894076	0.485558
0	H	0.284358	0.110443	0.438048
0	H	0.838183	0.110066	0.483754
0	H	0.78832	0.609255	0.455601
0	H	0.334645	0.609237	0.466787
0	H	0.336166	0.0974844	0.271082
0	H	0.786504	0.0969774	0.651006
0	H	0.839288	0.595449	0.286697
0	H	0.283664	0.595315	0.635644
0	H	0.36046	0.114592	0.486076
0	H	0.762095	0.114529	0.435826
0	H	0.864743	0.614089	0.500301
0	H	0.258237	0.614268	0.422151
0	H	0.339322	0.478634	0.697558
0	H	0.783792	0.478507	0.225462
0	H	0.841011	0.977969	0.709439
0	H	0.282155	0.977972	0.213536
0	H	0.471614	0.288946	0.892157
0	H	0.65142	0.289336	0.0287875
0	H	0.974757	0.788685	0.896358
0	H	0.148143	0.789019	0.0270105
0	H	0.516044	0.364802	0.775446
0	H	0.607186	0.364462	0.147665
0	H	0.0174771	0.864944	0.775794
0	H	0.105475	0.865326	0.147461
0	H	0.50487	0.382888	0.993967
0	H	0.617921	0.383819	0.929345
0	H	0.00902168	0.88251	0.99641
0	H	0.114013	0.882831	0.926876
0	H	0.271982	0.301598	0.777712
0	H	0.850972	0.301235	0.145594
0	H	0.774863	0.799428	0.786987
0	H	0.348081	0.799241	0.136157
0	H	0.105884	0.448845	0.535429
0	H	0.0173066	0.448737	0.386456
0	H	0.607383	0.946255	0.549201
0	H	0.515674	0.946477	0.372851
0	H	0.172934	0.461496	0.420966
0	H	0.950188	0.461222	0.501387
0	H	0.674415	0.959448	0.434344
0	H	0.448674	0.959244	0.488124
0	H	0.130909	0.362307	0.401275
0	H	0.992315	0.362151	0.520619
0	H	0.632562	0.860052	0.414651
0	H	0.490776	0.860017	0.5074
0	H	0.222042	0.405083	0.995385
0	H	0.900735	0.404002	0.926748
0	H	0.723423	0.904073	0.0034702
0	H	0.399469	0.903303	0.918833
0	H	0.299596	0.387764	0.0465845
0	H	0.823052	0.387525	0.876539
0	H	0.800226	0.882542	0.0586035
0	H	0.322541	0.882497	0.864371
0	H	0.302666	0.667289	0.927203
0	H	0.820238	0.667039	0.993094
0	H	0.806397	0.16308	0.938364
0	H	0.31536	0.162399	0.981692
0	H	0.233991	0.695766	0.0163362
0	H	0.890492	0.693751	0.913296
0	H	0.746836	0.196669	0.0675148
0	H	0.37824	0.195042	0.865943
0	H	0.29658	0.688914	0.15121
0	H	0.829752	0.689996	0.770827
0	H	0.816039	0.175408	0.164275
0	H	0.311004	0.177921	0.755336
