#******************************************
#
# CIF file created by Zeo++
# Zeo++ is an open source package to
# analyze microporous materials
#
#*******************************************

_cell_length_a		16.4128(0)
_cell_length_b		16.265(0)
_cell_length_c		7.29129(0)
_cell_angle_alpha		90(0)
_cell_angle_beta		90(0)
_cell_angle_gamma		120.755(0)

_symmetry_space_group_name_H-M		'P1'
_symmetry_Int_Tables_number		1
_symmetry_cell_setting		Monoclinic

loop_
_symmetry_equiv_pos_as_xyz
'+x,+y,+z'

loop_
_atom_site_label
_atom_site_type_symbol
_atom_site_fract_x
_atom_site_fract_y
_atom_site_fract_z
0	N	0.35896	0.280197	0.305897
0	N	0.77493	0.0685213	0.67464
0	N	0.937944	0.680122	0.970742
0	N	0.683121	0.754846	0.808623
0	N	0.267651	0.931516	0.139796
0	N	0.104501	0.358074	0.47801
0	O	0.286602	0.480618	0.104041
0	O	0.555098	0.824544	0.401934
0	O	0.211569	0.751875	0.765484
0	O	0.746077	0.549089	0.605191
0	O	0.482267	0.203218	0.944821
0	O	0.835564	0.292057	0.272844
0	O	0.273362	0.579358	0.90338
0	O	0.437074	0.735665	0.201037
0	O	0.317771	0.745849	0.575521
0	O	0.742994	0.436421	0.417684
0	O	0.59693	0.310425	0.756412
0	O	0.725429	0.285451	0.0766679
0	O	0.324079	0.431265	0.638156
0	O	0.571187	0.962575	0.00188457
0	O	0.118898	0.704219	0.304589
0	O	0.697175	0.589861	0.141977
0	O	0.434634	0.122499	0.476793
0	O	0.935973	0.349781	0.811945
0	O	0.242048	0.253906	0.657235
0	O	0.741963	0.0777978	0.0315341
0	O	0.028674	0.789675	0.319142
0	O	0.789523	0.769729	0.149503
0	O	0.2585	0.0325134	0.488141
0	O	0.00905446	0.246943	0.820172
0	C	0.263591	0.276266	0.985105
0	C	0.753024	0.0159939	0.3088
0	C	0.0310804	0.772604	0.647047
0	C	0.769332	0.751629	0.479533
0	C	0.274641	0.0285284	0.817752
0	C	0.0129657	0.27189	0.149716
0	C	0.247514	0.191104	0.0604891
0	C	0.843726	0.0731355	0.378342
0	C	0.962239	0.788612	0.718536
0	C	0.787532	0.838546	0.550259
0	C	0.187499	0.961613	0.890078
0	C	0.0787743	0.251543	0.221621
0	C	0.297007	0.196554	0.222717
0	C	0.851687	0.0991975	0.564625
0	C	0.916878	0.740164	0.881871
0	C	0.742595	0.836453	0.716784
0	C	0.187503	0.91461	0.0528749
0	C	0.12346	0.296953	0.387492
0	C	0.373467	0.36383	0.230896
0	C	0.685753	0.00781576	0.607591
0	C	0.00715479	0.666109	0.899909
0	C	0.665217	0.66963	0.736581
0	C	0.353376	0.998238	0.0675072
0	C	0.0383907	0.37661	0.406601
0	C	0.32691	0.364104	0.0715971
0	C	0.672893	0.981695	0.424048
0	C	0.0541871	0.710561	0.738418
0	C	0.706994	0.665935	0.573029
0	C	0.358852	0.0475592	0.907661
0	C	0.992191	0.335292	0.242646
0	C	0.331739	0.448033	0.9713
0	C	0.581468	0.917586	0.321478
0	C	0.131135	0.703155	0.638706
0	C	0.697454	0.579212	0.47566
0	C	0.445978	0.124686	0.810447
0	C	0.915629	0.344416	0.14551
0	C	0.265725	0.402283	0.799559
0	C	0.612344	0.922432	0.115361
0	C	0.151758	0.766124	0.461998
0	C	0.759349	0.620442	0.297912
0	C	0.406522	0.15188	0.638976
0	C	0.896094	0.284976	0.964082
0	C	0.220251	0.291066	0.814242
0	C	0.723175	0.989462	0.111585
0	C	0.0892559	0.813523	0.474411
0	C	0.809118	0.732396	0.308161
0	C	0.295497	0.0899111	0.648257
0	C	0.952996	0.231742	0.978802
0	C	0.430199	0.529628	0.927745
0	C	0.501752	0.936922	0.351324
0	C	0.108715	0.602074	0.604515
0	C	0.596977	0.49845	0.446281
0	C	0.520692	0.0997357	0.766871
0	C	0.934759	0.444722	0.119055
0	C	0.265803	0.550577	0.0592388
0	C	0.476093	0.741043	0.345378
0	C	0.299481	0.76377	0.726263
0	C	0.761095	0.474887	0.566772
0	C	0.559779	0.292047	0.906482
0	C	0.744617	0.268885	0.227733
0	C	0.23282	0.577379	0.225289
0	C	0.453111	0.665709	0.484421
0	C	0.360753	0.80222	0.889651
0	C	0.803578	0.456807	0.729834
0	C	0.582989	0.354459	0.0692129
0	C	0.68132	0.222911	0.387151
0	H	0.291606	0.446038	0.540112
0	H	0.614976	0.0348524	0.00132125
0	H	0.16326	0.737779	0.201234
0	H	0.733361	0.589246	0.0333318
0	H	0.44452	0.167778	0.376153
0	H	0.892444	0.323221	0.705951
0	H	0.305897	0.303735	0.607216
0	H	0.77027	0.0851281	0.900643
0	H	0.012027	0.724493	0.272297
0	H	0.72113	0.728247	0.114072
0	H	0.304949	0.0139678	0.44253
0	H	0.0322205	0.313378	0.770648
0	H	0.199006	0.122232	0.997782
0	H	0.90662	0.0991516	0.293101
0	H	0.942972	0.836057	0.651467
0	H	0.833979	0.905654	0.479859
0	H	0.121207	0.945123	0.824645
0	H	0.0960743	0.202715	0.15398
0	H	0.285352	0.130386	0.290363
0	H	0.921715	0.147531	0.628074
0	H	0.86156	0.750625	0.945647
0	H	0.754882	0.90293	0.78068
0	H	0.119634	0.861271	0.117679
0	H	0.176105	0.282657	0.452413
0	H	0.423106	0.429911	0.303507
0	H	0.626521	0.981921	0.70592
0	H	0.0235684	0.618614	0.977489
0	H	0.617228	0.605206	0.81505
0	H	0.416775	0.0105498	0.141807
0	H	0.0236603	0.424753	0.486199
0	H	0.211909	0.424008	0.788792
0	H	0.586596	0.849805	0.0584608
0	H	0.228356	0.819499	0.447435
0	H	0.810895	0.59592	0.283392
0	H	0.433131	0.22964	0.633202
0	H	0.818983	0.235221	0.942678
0	H	0.140913	0.251827	0.818038
0	H	0.759515	0.958121	0.0368743
0	H	0.132351	0.893633	0.474357
0	H	0.888483	0.768654	0.310321
0	H	0.260737	0.133913	0.651276
0	H	0.905351	0.15254	0.986346
0	H	0.475672	0.555234	0.0495802
0	H	0.46226	0.90295	0.478134
0	H	0.0909076	0.560228	0.731574
0	H	0.555969	0.476947	0.574112
0	H	0.543022	0.0767092	0.888987
0	H	0.957678	0.486744	0.246065
0	H	0.46418	0.508182	0.82355
0	H	0.52667	0.0135352	0.357896
0	H	0.0497519	0.565375	0.507198
0	H	0.560124	0.518375	0.345615
0	H	0.494166	0.0418637	0.664667
0	H	0.989481	0.482917	0.01366
0	H	0.427837	0.591283	0.870858
0	H	0.449595	0.905834	0.238416
0	H	0.170581	0.602085	0.545165
0	H	0.595558	0.434296	0.392777
0	H	0.584105	0.161953	0.707991
0	H	0.870255	0.443876	0.0730656
0	H	0.167568	0.57905	0.199766
0	H	0.424396	0.594669	0.422036
0	H	0.432979	0.861751	0.857555
0	H	0.865959	0.451725	0.694422
0	H	0.600175	0.427436	0.032634
0	H	0.608222	0.170933	0.344359
0	H	0.220528	0.529978	0.342903
0	H	0.514462	0.680893	0.570712
0	H	0.331244	0.826624	0.997677
0	H	0.824783	0.51216	0.836422
0	H	0.525772	0.326121	0.171958
0	H	0.706238	0.18661	0.478729
0	H	0.287114	0.650951	0.270818
0	H	0.398177	0.661883	0.579779
0	H	0.37103	0.745926	0.953902
0	H	0.750989	0.387902	0.795847
0	H	0.646993	0.362893	0.140171
0	H	0.676759	0.277972	0.470425
