#******************************************
#
# CIF file created by Zeo++
# Zeo++ is an open source package to
# analyze microporous materials
#
#*******************************************

_cell_length_a		26.8201(0)
_cell_length_b		26.825(0)
_cell_length_c		10.3536(0)
_cell_angle_alpha		90(0)
_cell_angle_beta		90(0)
_cell_angle_gamma		120.254(0)

_symmetry_space_group_name_H-M		'P1'
_symmetry_Int_Tables_number		1
_symmetry_cell_setting		Monoclinic

loop_
_symmetry_equiv_pos_as_xyz
'+x,+y,+z'

loop_
_atom_site_label
_atom_site_type_symbol
_atom_site_fract_x
_atom_site_fract_y
_atom_site_fract_z
0	O	0.0850418	0.259867	0.403304
0	O	0.756881	0.829676	0.409046
0	O	0.184708	0.933103	0.406272
0	O	0.933063	0.755463	0.674838
0	O	0.261089	0.185009	0.674029
0	O	0.832765	0.0815356	0.673568
0	O	0.750068	0.592721	0.745667
0	O	0.422477	0.161308	0.746593
0	O	0.855516	0.266129	0.746554
0	O	0.60075	0.0892859	0.0156128
0	O	0.925531	0.515525	0.0154976
0	O	0.499877	0.415345	0.0160976
0	O	0.41693	0.925646	0.0647131
0	O	0.092029	0.499334	0.064682
0	O	0.517727	0.599508	0.0643227
0	O	0.267676	0.422218	0.334442
0	O	0.595118	0.853514	0.333852
0	O	0.162137	0.748691	0.333853
0	C	0.113955	0.22608	0.431087
0	C	0.790592	0.892723	0.435625
0	C	0.121724	0.903746	0.433529
0	C	0.90364	0.788837	0.647933
0	C	0.227034	0.122063	0.646493
0	C	0.895768	0.110959	0.646494
0	C	0.779598	0.559317	0.771044
0	C	0.456461	0.224566	0.770503
0	C	0.792259	0.236275	0.77083
0	C	0.572833	0.123735	0.985212
0	C	0.891605	0.452876	0.984989
0	C	0.562576	0.443778	0.986176
0	C	0.444728	0.891089	0.0951611
0	C	0.125975	0.561976	0.0953028
0	C	0.455023	0.571024	0.0941855
0	C	0.238025	0.455509	0.3091
0	C	0.561163	0.790245	0.310134
0	C	0.225389	0.778504	0.309473
0	C	0.170236	0.263416	0.504904
0	C	0.753283	0.91164	0.508632
0	C	0.102531	0.847309	0.506511
0	C	0.847325	0.751292	0.574436
0	C	0.264171	0.103078	0.572972
0	C	0.914966	0.167413	0.573587
0	C	0.836099	0.596602	0.84411
0	C	0.419926	0.244596	0.842981
0	C	0.772431	0.179558	0.843105
0	C	0.51673	0.0866221	0.910703
0	C	0.929149	0.434758	0.910289
0	C	0.581654	0.499838	0.911741
0	C	0.500851	0.928124	0.169675
0	C	0.0884166	0.580107	0.169894
0	C	0.435974	0.514971	0.168623
0	C	0.181542	0.418137	0.236061
0	C	0.597669	0.770204	0.237563
0	C	0.245219	0.835214	0.23717
0	H	0.201219	0.298436	0.439608
0	H	0.718411	0.907407	0.442935
0	H	0.106526	0.816608	0.440663
0	H	0.816509	0.716187	0.639791
0	H	0.299041	0.107146	0.638458
0	H	0.910947	0.198088	0.639488
0	H	0.866938	0.631712	0.778775
0	H	0.385208	0.240746	0.777289
0	H	0.776469	0.148863	0.777323
0	H	0.48527	0.0520464	0.97614
0	H	0.963882	0.438477	0.975729
0	H	0.578234	0.531003	0.977135
0	H	0.532355	0.96265	0.104205
0	H	0.0537187	0.576418	0.104389
0	H	0.439403	0.48381	0.103241
0	H	0.150758	0.382984	0.30139
0	H	0.632422	0.774076	0.30317
0	H	0.241184	0.865913	0.302954
0	H	0.191063	0.237695	0.52677
0	H	0.779102	0.958414	0.530202
0	H	0.0557882	0.826253	0.528241
0	H	0.826261	0.776821	0.552832
0	H	0.238238	0.0563392	0.551167
0	H	0.961709	0.188478	0.551885
0	H	0.857012	0.570875	0.865046
0	H	0.446441	0.291383	0.863766
0	H	0.725612	0.158705	0.863792
0	H	0.496403	0.112655	0.887212
0	H	0.903492	0.388198	0.886559
0	H	0.628246	0.520556	0.88866
0	H	0.521079	0.902002	0.193204
0	H	0.114079	0.626664	0.19368
0	H	0.389377	0.494235	0.191682
0	H	0.160524	0.443768	0.21517
0	H	0.571144	0.723412	0.216854
0	H	0.292034	0.856063	0.216438
0	C	0.163877	0.291711	0.629647
0	C	0.724719	0.876983	0.633458
0	C	0.137196	0.853434	0.631175
0	C	0.853702	0.72311	0.449531
0	C	0.292724	0.137846	0.448251
0	C	0.880334	0.161349	0.448917
0	C	0.830084	0.624716	0.969526
0	C	0.391168	0.210703	0.968478
0	C	0.806383	0.185084	0.968606
0	C	0.523018	0.0575907	0.787105
0	C	0.95805	0.470572	0.78687
0	C	0.546328	0.49324	0.787858
0	C	0.494632	0.957216	0.293252
0	C	0.0594648	0.54427	0.293252
0	C	0.471304	0.521591	0.29253
0	C	0.187601	0.390058	0.11064
0	C	0.626357	0.804055	0.111971
0	C	0.211252	0.829687	0.11171
0	C	0.127502	0.361128	0.678285
0	C	0.654322	0.770751	0.68173
0	C	0.243374	0.889732	0.679244
0	C	0.889822	0.653423	0.401262
0	C	0.36291	0.244115	0.399991
0	C	0.774172	0.125041	0.400705
0	C	0.795322	0.695482	0.0181043
0	C	0.319066	0.105117	0.0181886
0	C	0.912059	0.219619	0.0179645
0	C	0.560158	0.988594	0.740026
0	C	0.0267637	0.577372	0.741106
0	C	0.439975	0.456169	0.741146
0	C	0.457545	0.026237	0.340512
0	C	0.99075	0.437472	0.338996
0	C	0.577677	0.558742	0.339296
0	C	0.222473	0.319369	0.0621811
0	C	0.6986	0.909629	0.0623806
0	C	0.105576	0.795156	0.0623878
0	H	0.15544	0.375901	0.763478
0	H	0.639628	0.783905	0.766878
0	H	0.23011	0.861792	0.76441
0	H	0.861715	0.638462	0.316362
0	H	0.377422	0.231005	0.314468
0	H	0.787455	0.153	0.31557
0	H	0.823179	0.709914	0.103468
0	H	0.304822	0.119068	0.102828
0	H	0.898189	0.191362	0.102687
0	H	0.533181	0.97427	0.65333
0	H	0.0413297	0.56508	0.654446
0	H	0.45286	0.483014	0.654298
0	H	0.484536	0.0405297	0.427196
0	H	0.976183	0.449767	0.42565
0	H	0.5648	0.531894	0.426137
0	H	0.194627	0.304903	0.976814
0	H	0.712856	0.895665	0.977783
0	H	0.119438	0.823391	0.977626
0	C	0.0934688	0.385528	0.650134
0	C	0.629369	0.712118	0.653129
0	C	0.302038	0.923657	0.650616
0	C	0.923857	0.629029	0.429477
0	C	0.387892	0.302724	0.428765
0	C	0.715504	0.0911204	0.429268
0	C	0.762602	0.721216	0.988771
0	C	0.29281	0.0463004	0.990254
0	C	0.970855	0.25259	0.989639
0	C	0.593711	0.963878	0.770399
0	C	0.0511816	0.635729	0.772066
0	C	0.381477	0.422917	0.771964
0	C	0.423993	0.0509634	0.310273
0	C	0.966329	0.379124	0.308023
0	C	0.636166	0.592027	0.308495
0	C	0.25522	0.293671	0.0916126
0	C	0.724911	0.968445	0.0903463
0	C	0.0467883	0.762201	0.0907456
0	H	0.094651	0.418512	0.713377
0	H	0.596146	0.680162	0.716121
0	H	0.333907	0.922383	0.71345
0	H	0.92247	0.595844	0.366601
0	H	0.420974	0.334713	0.365568
0	H	0.683656	0.0924503	0.366475
0	H	0.764784	0.754905	0.0512281
0	H	0.258829	0.0150326	0.0529418
0	H	0.00220021	0.250199	0.0522528
0	H	0.59325	0.9312	0.7073
0	H	0.0839021	0.668407	0.709409
0	H	0.349291	0.423564	0.709157
0	H	0.424436	0.0836008	0.373483
0	H	0.933619	0.346436	0.370675
0	H	0.668366	0.591439	0.371362
0	H	0.253034	0.259953	0.0292524
0	H	0.758962	0.999687	0.0277527
0	H	0.0154396	0.764606	0.0281766
0	C	0.0580406	0.367678	0.540469
0	C	0.646965	0.694497	0.543335
0	C	0.319782	0.959143	0.541046
0	C	0.959564	0.647165	0.538704
0	C	0.370488	0.320288	0.538979
0	C	0.697725	0.0555421	0.538694
0	C	0.727227	0.703828	0.879007
0	C	0.310071	0.0276661	0.881578
0	C	0.98936	0.288468	0.880704
0	C	0.627838	0.981025	0.882103
0	C	0.0336671	0.652183	0.88381
0	C	0.364305	0.388938	0.883868
0	C	0.389886	0.0338858	0.198533
0	C	0.983798	0.362677	0.19618
0	C	0.653318	0.625947	0.196478
0	C	0.290636	0.311152	0.201314
0	C	0.707579	0.987114	0.198855
0	C	0.0282822	0.7263	0.199655
0	H	0.0315325	0.386861	0.518129
0	H	0.627148	0.648659	0.520345
0	H	0.365643	0.98544	0.518141
0	H	0.986074	0.627991	0.561093
0	H	0.390291	0.366118	0.562049
0	H	0.651857	0.0292254	0.561501
0	H	0.702062	0.724362	0.855193
0	H	0.289241	0.981695	0.858843
0	H	0.0352874	0.313793	0.857467
0	H	0.65381	0.961449	0.906464
0	H	0.0530373	0.69781	0.908733
0	H	0.318579	0.363287	0.908622
0	H	0.363924	0.0534846	0.17427
0	H	0.964385	0.31705	0.171214
0	H	0.699039	0.651597	0.171674
0	H	0.315841	0.290666	0.225177
0	H	0.72841	0.0330863	0.221559
0	H	0.982355	0.700972	0.222883
0	C	0.0563955	0.325543	0.459386
0	C	0.689611	0.735132	0.462905
0	C	0.279228	0.961101	0.460805
0	C	0.961454	0.689555	0.619303
0	C	0.328058	0.279602	0.619685
0	C	0.738253	0.0535286	0.618923
0	C	0.724064	0.660579	0.799399
0	C	0.353616	0.0674457	0.801565
0	C	0.949474	0.291936	0.801058
0	C	0.628903	0.0230107	0.96273
0	C	0.991595	0.610655	0.963755
0	C	0.405207	0.387663	0.964153
0	C	0.388803	0.991936	0.117785
0	C	0.0258619	0.404192	0.116216
0	C	0.612404	0.627178	0.116192
0	C	0.293773	0.354425	0.280815
0	C	0.66396	0.947349	0.278731
0	C	0.0681695	0.722838	0.279308
0	H	0.0296895	0.311555	0.372975
0	H	0.703428	0.722426	0.376374
0	H	0.292048	0.987936	0.374615
0	H	0.988418	0.703813	0.705318
0	H	0.314419	0.292257	0.70657
0	H	0.725398	0.026594	0.704959
0	H	0.697201	0.646722	0.713247
0	H	0.367295	0.0538954	0.716182
0	H	0.962913	0.319236	0.715633
0	H	0.654509	0.0364311	0.0507956
0	H	0.977823	0.622382	0.051789
0	H	0.392882	0.362128	0.0522983
0	H	0.363218	0.978577	0.0296957
0	H	0.039581	0.392471	0.0281031
0	H	0.624705	0.652654	0.0279574
0	H	0.320679	0.368364	0.366908
0	H	0.650212	0.960919	0.363975
0	H	0.0547275	0.695516	0.364694
0	C	0.0904679	0.30077	0.490074
0	C	0.715125	0.79415	0.494462
0	C	0.220163	0.927167	0.492051
0	C	0.927327	0.714271	0.588606
0	C	0.302533	0.220587	0.58803
0	C	0.797335	0.0875132	0.587812
0	C	0.756913	0.634571	0.831107
0	C	0.380183	0.126668	0.831952
0	C	0.890276	0.258866	0.83181
0	C	0.595564	0.0482794	0.929433
0	C	0.966632	0.551948	0.929893
0	C	0.464057	0.420729	0.93045
0	C	0.422112	0.966613	0.151
0	C	0.0508763	0.462902	0.150184
0	C	0.553556	0.594121	0.149956
0	C	0.260849	0.380345	0.249077
0	C	0.6374	0.888123	0.248425
0	C	0.127372	0.75593	0.248572
0	C	0.126665	0.318184	0.599442
0	C	0.697716	0.813026	0.603432
0	C	0.201177	0.890699	0.600961
0	C	0.890875	0.696589	0.479681
0	C	0.319687	0.201778	0.478546
0	C	0.816346	0.124034	0.478999
0	C	0.793358	0.651797	0.940043
0	C	0.363143	0.146542	0.939801
0	C	0.87053	0.221873	0.939798
0	C	0.560315	0.0313109	0.818542
0	C	0.984003	0.534219	0.818982
0	C	0.482516	0.455925	0.819485
0	C	0.45736	0.983533	0.261884
0	C	0.0335064	0.480625	0.261081
0	C	0.535113	0.558933	0.260913
0	C	0.224393	0.363055	0.140166
0	C	0.654444	0.86822	0.140636
0	C	0.14711	0.7929	0.140552
0	C	0.138315	0.247694	0.739614
0	C	0.768749	0.895578	0.743323
0	C	0.118878	0.878849	0.741292
0	C	0.879362	0.767221	0.339786
0	C	0.24875	0.119295	0.338276
0	C	0.898722	0.136026	0.338741
0	C	0.804356	0.580407	0.0788151
0	C	0.435311	0.22899	0.0780111
0	C	0.787926	0.210645	0.0781239
0	C	0.54822	0.101164	0.676256
0	C	0.91455	0.451976	0.675899
0	C	0.56449	0.46787	0.677375
0	C	0.469422	0.913655	0.404121
0	C	0.10294	0.562833	0.404282
0	C	0.453115	0.546953	0.402984
0	C	0.21327	0.434361	0.00132451
0	C	0.582165	0.785782	0.00256519
0	C	0.229681	0.804123	0.00214491
0	C	0.164964	0.215959	0.77451
0	C	0.801215	0.954285	0.777244
0	C	0.0603142	0.852052	0.776557
0	C	0.852973	0.799271	0.305535
0	C	0.216367	0.0606083	0.304091
0	C	0.957253	0.163069	0.303081
0	C	0.830621	0.54813	0.112225
0	C	0.46751	0.287524	0.113381
0	C	0.729255	0.184043	0.112311
0	C	0.521456	0.132798	0.641281
0	C	0.883091	0.393388	0.640587
0	C	0.623118	0.494579	0.642737
0	C	0.496212	0.882066	0.439266
0	C	0.134444	0.621426	0.439603
0	C	0.394466	0.520275	0.437443
0	C	0.187032	0.466677	0.968148
0	C	0.549992	0.727253	0.967136
0	C	0.288335	0.830758	0.96778
0	H	0.203774	0.222704	0.723423
0	H	0.795018	0.986517	0.725581
0	H	0.027932	0.813207	0.725655
0	H	0.814317	0.792721	0.357013
0	H	0.222535	0.0283528	0.355752
0	H	0.989566	0.202069	0.35363
0	H	0.869084	0.554506	0.060158
0	H	0.461101	0.319876	0.0629212
0	H	0.696958	0.145279	0.0610535
0	H	0.482845	0.126294	0.692932
0	H	0.889761	0.361401	0.692052
0	H	0.65545	0.53324	0.694349
0	H	0.53487	0.888616	0.387741
0	H	0.127807	0.653431	0.388138
0	H	0.362145	0.481646	0.385719
0	H	0.148619	0.460342	0.0203736
0	H	0.556409	0.694897	0.0175596
0	H	0.320644	0.869553	0.0189365
0	C	0.14259	0.174946	0.872938
0	C	0.84226	0.973019	0.875557
0	C	0.0418774	0.874346	0.875217
0	C	0.875407	0.840321	0.207192
0	C	0.175457	0.0419073	0.205517
0	C	0.975755	0.140823	0.20444
0	C	0.80827	0.507008	0.210375
0	C	0.50858	0.305938	0.211621
0	C	0.710605	0.206475	0.210227
0	C	0.54349	0.173422	0.542042
0	C	0.842479	0.374468	0.541317
0	C	0.641662	0.472465	0.543913
0	C	0.474128	0.841402	0.538417
0	C	0.175054	0.640307	0.538879
0	C	0.375887	0.54238	0.536192
0	C	0.209325	0.507781	0.869921
0	C	0.508944	0.708843	0.868865
0	C	0.30695	0.808323	0.869801
0	H	0.162805	0.149258	0.896755
0	H	0.868479	0.0191239	0.898892
0	H	0.99586	0.853982	0.899519
0	H	0.855364	0.866205	0.183773
0	H	0.149323	0.995819	0.181992
0	H	0.0217528	0.161394	0.179798
0	H	0.828253	0.481024	0.233366
0	H	0.534507	0.35193	0.236171
0	H	0.664523	0.186211	0.233822
0	H	0.523108	0.198912	0.517822
0	H	0.817093	0.328416	0.516951
0	H	0.687725	0.492834	0.519958
0	H	0.494495	0.815906	0.562703
0	H	0.200488	0.686359	0.563254
0	H	0.329809	0.522056	0.559961
0	H	0.189326	0.533757	0.847035
0	H	0.483052	0.662854	0.844258
0	H	0.353018	0.828623	0.846036
0	C	0.093377	0.166641	0.938634
0	C	0.849915	0.931924	0.941977
0	C	0.0831672	0.923687	0.940561
0	C	0.92443	0.848386	0.141028
0	C	0.167819	0.0830106	0.139045
0	C	0.934573	0.0912581	0.139617
0	C	0.759405	0.499051	0.277135
0	C	0.516577	0.26468	0.276325
0	C	0.751755	0.255806	0.275828
0	C	0.592549	0.181574	0.475894
0	C	0.834221	0.415282	0.475378
0	C	0.600439	0.423393	0.477769
0	C	0.425007	0.833202	0.604374
0	C	0.18324	0.599449	0.604824
0	C	0.417114	0.591398	0.602551
0	C	0.258124	0.515703	0.802952
0	C	0.500908	0.750084	0.804193
0	C	0.265794	0.758937	0.804385
0	C	0.0660223	0.197802	0.907744
0	C	0.818023	0.87311	0.91208
0	C	0.141864	0.951175	0.909277
0	C	0.951547	0.816943	0.17138
0	C	0.199616	0.141797	0.169222
0	C	0.875909	0.0635208	0.171306
0	C	0.732407	0.530697	0.247651
0	C	0.485011	0.206015	0.24477
0	C	0.810566	0.283098	0.245662
0	C	0.62006	0.150582	0.50702
0	C	0.865161	0.474011	0.50661
0	C	0.541667	0.396011	0.508322
0	C	0.397479	0.864165	0.573129
0	C	0.152241	0.540721	0.573634
0	C	0.475894	0.618733	0.572216
0	C	0.285104	0.484015	0.83225
0	C	0.532418	0.808743	0.835889
0	C	0.207004	0.731614	0.834739
0	H	0.027858	0.190756	0.960468
0	H	0.824498	0.841797	0.965289
0	H	0.173321	0.989386	0.961774
0	H	0.989573	0.823819	0.118307
0	H	0.19317	0.173119	0.115979
0	H	0.844531	0.0251278	0.11922
0	H	0.694581	0.523976	0.301269
0	H	0.491763	0.174609	0.296773
0	H	0.841895	0.321275	0.298436
0	H	0.658073	0.157471	0.453981
0	H	0.858247	0.505045	0.453484
0	H	0.510302	0.358067	0.455031
0	H	0.359414	0.857233	0.62601
0	H	0.159088	0.509651	0.626794
0	H	0.507258	0.656629	0.625658
0	H	0.322877	0.490705	0.778448
0	H	0.525622	0.840133	0.783951
0	H	0.175668	0.6934	0.782089
0	C	0.0888267	0.237889	0.807278
0	C	0.777847	0.855705	0.811809
0	C	0.158942	0.928411	0.808688
0	C	0.928662	0.776776	0.271668
0	C	0.239663	0.15917	0.269788
0	C	0.858751	0.0862772	0.27176
0	C	0.755173	0.570901	0.147338
0	C	0.444809	0.188941	0.144604
0	C	0.827885	0.260191	0.145773
0	C	0.597529	0.110779	0.608085
0	C	0.904912	0.491596	0.607802
0	C	0.524453	0.418608	0.609028
0	C	0.420036	0.90397	0.472071
0	C	0.112512	0.523179	0.472405
0	C	0.493137	0.596163	0.471478
0	C	0.262369	0.443795	0.932512
0	C	0.572615	0.825818	0.93607
0	C	0.189707	0.754543	0.934627
0	H	0.0666626	0.261341	0.781537
0	H	0.753751	0.809825	0.786962
0	H	0.204694	0.950682	0.782561
0	H	0.950601	0.753051	0.296941
0	H	0.263656	0.205027	0.294838
0	H	0.813024	0.0638575	0.298119
0	H	0.733263	0.59468	0.122377
0	H	0.420998	0.143227	0.118182
0	H	0.873717	0.282304	0.12034
0	H	0.619797	0.0874673	0.633976
0	H	0.928164	0.537344	0.633738
0	H	0.478653	0.39644	0.634418
0	H	0.397728	0.927222	0.446026
0	H	0.0892222	0.47743	0.446485
0	H	0.538948	0.618321	0.446192
0	H	0.28423	0.419946	0.957245
0	H	0.596392	0.871522	0.962595
0	H	0.143887	0.732419	0.960151
0	C	0.224817	0.339652	0.670274
0	C	0.677167	0.890202	0.673906
0	C	0.123671	0.792465	0.671608
0	C	0.792771	0.675277	0.408612
0	C	0.340343	0.124735	0.407679
0	C	0.893812	0.222325	0.408695
0	C	0.891183	0.672319	0.0101695
0	C	0.344294	0.22504	0.00813367
0	C	0.792292	0.123848	0.00821482
0	C	0.462071	0.00914966	0.747797
0	C	0.0066844	0.45881	0.747034
0	C	0.559137	0.554046	0.747737
0	C	0.555611	0.00563927	0.332438
0	C	0.0108232	0.556035	0.332997
0	C	0.458503	0.460788	0.332651
0	C	0.126528	0.342393	0.0700227
0	C	0.673149	0.78964	0.0720671
0	C	0.22533	0.890919	0.0721084
0	H	0.254937	0.323422	0.677174
0	H	0.693899	0.936744	0.681614
0	H	0.0770677	0.762467	0.679164
0	H	0.762666	0.691542	0.402092
0	H	0.323697	0.0782066	0.400125
0	H	0.940413	0.252421	0.401691
0	H	0.921201	0.655921	0.0157637
0	H	0.361431	0.271723	0.0126115
0	H	0.745636	0.0938044	0.012709
0	H	0.431754	0.0250668	0.739555
0	H	0.990983	0.412496	0.738655
0	H	0.605619	0.584438	0.739993
0	H	0.585862	0.989655	0.341002
0	H	0.0265549	0.602343	0.341727
0	H	0.412026	0.430432	0.340721
0	H	0.0964271	0.358696	0.064679
0	H	0.656011	0.742946	0.0681042
0	H	0.271983	0.921012	0.067966
0	H	0.224278	0.358185	0.764219
0	H	0.658233	0.870787	0.767476
0	H	0.142949	0.792997	0.765301
0	H	0.793325	0.656952	0.3144
0	H	0.359172	0.144097	0.314001
0	H	0.874732	0.221862	0.314785
0	H	0.890877	0.690584	0.104641
0	H	0.325876	0.206914	0.102869
0	H	0.810506	0.123764	0.102892
0	H	0.462439	0.989809	0.654846
0	H	0.0258468	0.478765	0.653999
0	H	0.539573	0.553469	0.654435
0	H	0.555262	0.025132	0.425191
0	H	0.991516	0.535931	0.425824
0	H	0.478195	0.461385	0.425797
0	H	0.126827	0.324204	0.975448
0	H	0.691311	0.807525	0.977012
0	H	0.207254	0.891017	0.97727
0	H	0.242691	0.374977	0.599401
0	H	0.642028	0.873108	0.602581
0	H	0.140676	0.774415	0.600442
0	H	0.774862	0.639791	0.479071
0	H	0.375544	0.141947	0.478868
0	H	0.876566	0.240217	0.479668
0	H	0.909075	0.707916	0.939929
0	H	0.308666	0.207272	0.937975
0	H	0.810162	0.106261	0.937965
0	H	0.444445	0.974454	0.820395
0	H	0.0414784	0.476299	0.819414
0	H	0.541884	0.571652	0.819595
0	H	0.573289	0.0402279	0.259584
0	H	0.976129	0.538695	0.260387
0	H	0.475622	0.443125	0.26061
0	H	0.108728	0.306748	0.140158
0	H	0.708955	0.807582	0.141755
0	H	0.207301	0.90843	0.142152
0	C	0.125486	0.212035	0.295503
0	C	0.804533	0.917946	0.299578
0	C	0.0961663	0.892337	0.297825
0	C	0.892101	0.80256	0.78384
0	C	0.212852	0.0964711	0.782175
0	C	0.921273	0.122373	0.782256
0	C	0.790914	0.546115	0.634434
0	C	0.469592	0.248515	0.633269
0	C	0.76811	0.225285	0.633795
0	C	0.561092	0.138633	0.11976
0	C	0.876948	0.42618	0.119621
0	C	0.589029	0.455613	0.12102
0	C	0.456401	0.876125	0.960614
0	C	0.140718	0.588692	0.960694
0	C	0.428591	0.559174	0.959317
0	C	0.226648	0.468661	0.445705
0	C	0.548141	0.766357	0.447423
0	C	0.249573	0.789501	0.446476
0	H	0.142316	0.182338	0.298412
0	H	0.834855	0.96458	0.301567
0	H	0.0495422	0.875739	0.300646
0	H	0.874577	0.83168	0.781471
0	H	0.182615	0.0498277	0.779515
0	H	0.967945	0.139235	0.779492
0	H	0.807672	0.516347	0.635199
0	H	0.499632	0.295213	0.633039
0	H	0.721417	0.208339	0.63388
0	H	0.545429	0.169257	0.114977
0	H	0.846952	0.379526	0.115037
0	H	0.635551	0.471781	0.116901
0	H	0.471686	0.845197	0.965383
0	H	0.171062	0.635274	0.965294
0	H	0.38211	0.543227	0.96335
0	H	0.209539	0.498136	0.44491
0	H	0.518447	0.719591	0.447726
0	H	0.296312	0.806716	0.446305
0	H	0.156905	0.251087	0.243315
0	H	0.765568	0.910486	0.24773
0	H	0.103361	0.860774	0.245724
0	H	0.861198	0.763294	0.83615
0	H	0.251751	0.103888	0.83427
0	H	0.913804	0.153727	0.834494
0	H	0.82227	0.585491	0.583114
0	H	0.430223	0.240278	0.582019
0	H	0.77621	0.19417	0.582357
0	H	0.528737	0.100078	0.171888
0	H	0.91571	0.433458	0.172105
0	H	0.582458	0.487587	0.1731
0	H	0.488994	0.914587	0.90863
0	H	0.102051	0.581801	0.908412
0	H	0.434955	0.52702	0.907462
0	H	0.195523	0.429211	0.497149
0	H	0.58761	0.775	0.498833
0	H	0.241223	0.820406	0.498115
0	H	0.0859619	0.191593	0.235778
0	H	0.82427	0.898265	0.239967
0	H	0.115747	0.931849	0.238064
0	H	0.931744	0.823503	0.843131
0	H	0.192917	0.115923	0.841907
0	H	0.901872	0.0828102	0.841833
0	H	0.751272	0.526107	0.575097
0	H	0.489246	0.228514	0.574544
0	H	0.788091	0.265066	0.575002
0	H	0.600363	0.158373	0.180444
0	H	0.85657	0.445027	0.179944
0	H	0.569458	0.41631	0.18156
0	H	0.417176	0.856697	0.899798
0	H	0.160731	0.569537	0.900162
0	H	0.448329	0.598418	0.898587
0	H	0.266323	0.488967	0.50494
0	H	0.528124	0.786057	0.505942
0	H	0.229802	0.749672	0.505104
0	C	0.0698308	0.172415	0.503884
0	C	0.844357	0.902852	0.508316
0	C	0.112119	0.94756	0.506568
0	C	0.947422	0.842722	0.575246
0	C	0.173433	0.112402	0.573816
0	C	0.905428	0.0671769	0.573494
0	C	0.735865	0.505257	0.843321
0	C	0.510482	0.235055	0.84263
0	C	0.781787	0.279626	0.843403
0	C	0.617809	0.176923	0.912394
0	C	0.838221	0.443784	0.912261
0	C	0.57096	0.399166	0.913227
0	C	0.399676	0.837943	0.167973
0	C	0.179296	0.570986	0.168199
0	C	0.446563	0.615599	0.16709
0	C	0.281673	0.5096	0.236793
0	C	0.507069	0.779663	0.23821
0	C	0.23579	0.735119	0.236856
0	H	0.0891188	0.147608	0.540552
0	H	0.869457	0.94731	0.543793
0	H	0.0676715	0.928159	0.541981
0	H	0.927853	0.867412	0.539478
0	H	0.148086	0.0679831	0.538247
0	H	0.949937	0.0865486	0.538506
0	H	0.755624	0.480992	0.880682
0	H	0.53511	0.279364	0.879238
0	H	0.737442	0.25959	0.879857
0	H	0.599608	0.202868	0.87679
0	H	0.812577	0.399441	0.876455
0	H	0.614928	0.418007	0.875128
0	H	0.417818	0.811991	0.203882
0	H	0.204785	0.615217	0.204766
0	H	0.402582	0.596715	0.205139
0	H	0.261864	0.533885	0.199847
0	H	0.482298	0.735243	0.202332
0	H	0.280124	0.755121	0.200336
0	H	0.0332402	0.14376	0.442076
0	H	0.872732	0.894617	0.446706
0	H	0.12072	0.984416	0.445264
0	H	0.984107	0.871382	0.63683
0	H	0.145215	0.120834	0.635475
0	H	0.89663	0.030213	0.634648
0	H	0.699684	0.476214	0.78098
0	H	0.539198	0.227582	0.780461
0	H	0.789363	0.316006	0.78159
0	H	0.654848	0.204704	0.974114
0	H	0.810198	0.452456	0.974054
0	H	0.56289	0.362702	0.975346
0	H	0.362689	0.810144	0.106152
0	H	0.207483	0.562606	0.10627
0	H	0.45459	0.652034	0.104919
0	H	0.317942	0.538605	0.298986
0	H	0.478507	0.787412	0.300267
0	H	0.228189	0.698717	0.298623
0	H	0.0522323	0.183737	0.58724
0	H	0.833133	0.874262	0.59242
0	H	0.140711	0.964831	0.59075
0	H	0.964933	0.831672	0.491287
0	H	0.184837	0.141044	0.489773
0	H	0.876995	0.0500384	0.48904
0	H	0.717595	0.516117	0.926197
0	H	0.49951	0.206087	0.925989
0	H	0.810703	0.297646	0.926925
0	H	0.634596	0.165079	0.828401
0	H	0.849883	0.472566	0.82841
0	H	0.541367	0.381441	0.830788
0	H	0.38282	0.849843	0.251753
0	H	0.167543	0.541926	0.251559
0	H	0.476144	0.633359	0.249549
0	H	0.299822	0.498782	0.153622
0	H	0.517943	0.808365	0.154385
0	H	0.206858	0.717126	0.153364
0	O	0.0689802	0.127305	0.0385864
0	O	0.88939	0.947182	0.0417041
0	O	0.0683883	0.948104	0.0404421
0	O	0.948848	0.887724	0.0410901
0	O	0.128501	0.0678157	0.0390353
0	O	0.949413	0.0668723	0.0397719
0	O	0.735107	0.459428	0.376629
0	O	0.556102	0.279576	0.375819
0	O	0.736551	0.280306	0.374763
0	O	0.616578	0.220645	0.375287
0	O	0.795092	0.399943	0.374901
0	O	0.615423	0.399291	0.377566
0	O	0.400907	0.794072	0.704839
0	O	0.222382	0.614766	0.705297
0	O	0.402072	0.615484	0.702689
0	O	0.282368	0.555293	0.703372
0	O	0.461437	0.735196	0.704615
0	O	0.280949	0.734423	0.705389
0	H	0.0888457	0.103472	0.0495977
0	H	0.913632	0.991101	0.0515862
0	H	0.0245327	0.92793	0.0518818
0	H	0.92903	0.911606	0.030207
0	H	0.104299	0.0239045	0.0289435
0	H	0.99327	0.0871382	0.028226
0	H	0.754813	0.435357	0.386091
0	H	0.579883	0.323444	0.387361
0	H	0.692626	0.260321	0.384788
0	H	0.596507	0.244295	0.36442
0	H	0.771644	0.356057	0.363602
0	H	0.659309	0.419434	0.366761
0	H	0.420956	0.770404	0.715736
0	H	0.245851	0.658652	0.716595
0	H	0.358182	0.595361	0.71334
0	H	0.262622	0.579329	0.693919
0	H	0.437675	0.691329	0.693018
0	H	0.32487	0.754421	0.695232
