#******************************************
#
# CIF file created by Zeo++
# Zeo++ is an open source package to
# analyze microporous materials
#
#*******************************************

_cell_length_a		12.6298(0)
_cell_length_b		13.9509(0)
_cell_length_c		33.2043(0)
_cell_angle_alpha		61.7794(0)
_cell_angle_beta		68.1212(0)
_cell_angle_gamma		80.6465(0)

_symmetry_space_group_name_H-M		'P1'
_symmetry_Int_Tables_number		1
_symmetry_cell_setting		Triclinic

loop_
_symmetry_equiv_pos_as_xyz
'+x,+y,+z'

loop_
_atom_site_label
_atom_site_type_symbol
_atom_site_fract_x
_atom_site_fract_y
_atom_site_fract_z
0	Br	0.296661	0.652932	0.399092
0	Br	0.376555	0.569798	0.145219
0	Br	0.520779	0.191371	0.396261
0	Br	0.808834	0.630726	0.992214
0	Br	0.543224	0.605071	0.296261
0	Br	0.619691	0.857083	0.0461291
0	O	0.0903969	0.635337	0.265815
0	O	0.378268	0.338862	0.0308719
0	O	0.592979	0.224538	0.200319
0	O	0.00462685	0.465015	0.154521
0	O	0.697778	0.872653	0.365528
0	O	0.429137	0.97569	0.213272
0	O	0.292193	0.857235	0.202255
0	O	0.0960049	0.401097	0.0842826
0	O	0.688206	0.96682	0.275105
0	O	0.841804	0.22295	0.243036
0	O	0.00245829	0.852329	0.32237
0	O	0.234122	0.19357	0.173558
0	C	0.157255	0.720998	0.217087
0	C	0.262837	0.360277	0.0256849
0	C	0.637475	0.114624	0.205536
0	C	0.935344	0.397886	0.20523
0	C	0.808072	0.855582	0.372981
0	C	0.351643	0.0646569	0.2158
0	H	0.177339	0.679771	0.193676
0	H	0.283689	0.399768	0.98572
0	H	0.591092	0.0941155	0.187935
0	H	0.873752	0.451642	0.21863
0	H	0.804249	0.776413	0.405234
0	H	0.408797	0.126621	0.210055
0	C	0.265783	0.741623	0.224157
0	C	0.206202	0.442764	0.0468208
0	C	0.598865	0.0409438	0.261657
0	C	0.872415	0.309278	0.207542
0	C	0.902244	0.857251	0.327284
0	C	0.292144	0.113597	0.178041
0	H	0.340978	0.699254	0.209357
0	H	0.195905	0.523413	0.0177357
0	H	0.518336	0.99442	0.274862
0	H	0.855148	0.330278	0.17406
0	H	0.872094	0.862409	0.299104
0	H	0.304298	0.0724396	0.155395
0	C	0.231693	0.695073	0.278373
0	C	0.287718	0.448215	0.0691733
0	C	0.577948	0.121737	0.281682
0	C	0.00812249	0.474936	0.0805826
0	C	0.653471	0.858784	0.30461
0	C	0.401123	0.888763	0.168967
0	C	0.28016	0.704604	0.3074
0	C	0.281375	0.499788	0.0968113
0	C	0.565098	0.109801	0.326991
0	C	0.966838	0.51493	0.0419199
0	C	0.612706	0.799943	0.288822
0	C	0.447167	0.860075	0.130728
0	H	0.353571	0.759519	0.291412
0	H	0.204377	0.542734	0.108143
0	H	0.575163	0.030384	0.355782
0	H	0.00919088	0.494199	0.011887
0	H	0.598139	0.841236	0.254037
0	H	0.398251	0.80844	0.127209
0	C	0.229175	0.644199	0.358014
0	C	0.376797	0.492638	0.110222
0	C	0.540531	0.204234	0.333953
0	C	0.869212	0.578536	0.0437391
0	C	0.593105	0.688284	0.318343
0	C	0.555591	0.899703	0.0971764
0	C	0.132069	0.578677	0.379036
0	C	0.473192	0.432834	0.0985605
0	C	0.529763	0.306283	0.297319
0	C	0.813468	0.604028	0.0824489
0	C	0.610173	0.635241	0.363121
0	C	0.618008	0.968742	0.100076
0	H	0.0952223	0.532606	0.418501
0	H	0.54511	0.427994	0.110227
0	H	0.50903	0.377184	0.304447
0	H	0.737069	0.653901	0.0831415
0	H	0.592664	0.547995	0.385821
0	H	0.702544	0.999196	0.0734291
0	C	0.0799399	0.5716	0.349807
0	C	0.478798	0.377673	0.0718143
0	C	0.545911	0.319468	0.250722
0	C	0.855637	0.565165	0.12076
0	C	0.649124	0.694737	0.379128
0	C	0.571064	0.998778	0.137768
0	H	0.00378496	0.522042	0.36542
0	H	0.552727	0.330692	0.0623351
0	H	0.537981	0.398096	0.221696
0	H	0.81364	0.585793	0.150822
0	H	0.661349	0.654707	0.414262
0	H	0.618333	0.0524608	0.141067
0	C	0.130632	0.631566	0.299838
0	C	0.385219	0.386655	0.057768
0	C	0.571666	0.22646	0.243879
0	C	0.953329	0.501158	0.119924
0	C	0.669896	0.806728	0.350264
0	C	0.463853	0.95791	0.172779
0	C	0.0758392	0.81704	0.204035
0	C	0.207425	0.24677	0.0504544
0	C	0.767177	0.128393	0.178198
0	C	0.0262232	0.353495	0.23054
0	C	0.814483	0.953719	0.38196
0	C	0.263175	0.016047	0.268149
0	H	0.0607983	0.853622	0.229365
0	H	0.203105	0.207242	0.0893523
0	H	0.807087	0.140662	0.200613
0	H	0.0860036	0.30224	0.214069
0	H	0.800314	0.0287124	0.350479
0	H	0.197245	0.968391	0.269505
0	C	0.128524	0.903968	0.151686
0	C	0.0868967	0.252835	0.0489482
0	C	0.816693	0.026314	0.17234
0	C	0.967742	0.283177	0.284988
0	C	0.931465	0.961789	0.383977
0	C	0.206074	0.10966	0.279809
0	H	0.0678486	0.969531	0.141849
0	H	0.0558082	0.171705	0.0604747
0	H	0.908355	0.0377991	0.151198
0	H	0.029943	0.253871	0.303925
0	H	0.936669	0.0332743	0.38873
0	H	0.135609	0.0791693	0.314697
0	H	0.152689	0.871317	0.125357
0	H	0.0828182	0.305031	0.0125585
0	H	0.775816	0.00490451	0.153786
0	H	0.902937	0.327652	0.302078
0	H	0.949401	0.890157	0.414105
0	H	0.26561	0.15407	0.282265
0	H	0.204842	0.941507	0.14709
0	H	0.0259461	0.283466	0.0740083
0	H	0.807956	0.955644	0.207938
0	H	0.924931	0.211261	0.291999
0	H	0.00145376	0.969221	0.350551
0	H	0.170237	0.169331	0.251926
0	C	0.961818	0.774726	0.211642
0	C	0.283088	0.179416	0.025149
0	C	0.792469	0.228486	0.128491
0	C	0.095364	0.446613	0.221418
0	C	0.719906	0.945335	0.428805
0	C	0.319616	0.938609	0.305171
0	H	0.931937	0.701571	0.246611
0	H	0.373104	0.184873	0.0204926
0	H	0.744728	0.299383	0.13157
0	H	0.120724	0.507684	0.183124
0	H	0.638849	0.917477	0.432467
0	H	0.361541	0.871531	0.296502
0	H	0.967765	0.752894	0.18323
0	H	0.277975	0.206479	0.988987
0	H	0.769213	0.214809	0.102967
0	H	0.0489431	0.488388	0.243655
0	H	0.740926	0.890259	0.461626
0	H	0.384488	0.979646	0.306568
0	H	0.89516	0.835952	0.211849
0	H	0.257858	0.0932256	0.0465597
0	H	0.883823	0.250697	0.111852
0	H	0.174034	0.41581	0.229837
0	H	0.704533	0.0255026	0.428405
0	H	0.256092	0.901548	0.341846
