#******************************************
#
# CIF file created by Zeo++
# Zeo++ is an open source package to
# analyze microporous materials
#
#*******************************************

_cell_length_a		47.8738(0)
_cell_length_b		10.1116(0)
_cell_length_c		6.97024(0)
_cell_angle_alpha		90(0)
_cell_angle_beta		96.0511(0)
_cell_angle_gamma		90(0)

_symmetry_space_group_name_H-M		'P1'
_symmetry_Int_Tables_number		1
_symmetry_cell_setting		Monoclinic

loop_
_symmetry_equiv_pos_as_xyz
'+x,+y,+z'

loop_
_atom_site_label
_atom_site_type_symbol
_atom_site_fract_x
_atom_site_fract_y
_atom_site_fract_z
0	S	0.120037	0.644932	0.747164
0	S	0.866743	0.644485	0.249642
0	S	0.618785	0.14665	0.745955
0	S	0.368005	0.146229	0.250911
0	C	0.144377	0.572872	0.92069
0	C	0.84236	0.572495	0.0763414
0	C	0.642937	0.0736716	0.919758
0	C	0.343813	0.0733048	0.0773314
0	H	0.143301	0.616672	0.067475
0	H	0.843441	0.616107	0.929448
0	H	0.641835	0.117265	0.0666442
0	H	0.344917	0.116727	0.930337
0	H	0.1394	0.466505	0.942989
0	H	0.847292	0.466049	0.0542466
0	H	0.637809	0.967398	0.94138
0	H	0.348899	0.966958	0.0559016
0	C	0.195958	0.487287	0.99832
0	C	0.790743	0.487423	0.998989
0	C	0.694433	0.987007	0.998848
0	C	0.292281	0.987119	0.998486
0	C	0.188419	0.722728	0.911334
0	C	0.798383	0.722817	0.0859504
0	C	0.687141	0.222544	0.911593
0	C	0.299669	0.222611	0.0857376
0	H	0.181545	0.794825	0.796539
0	H	0.805302	0.794871	0.200714
0	H	0.680381	0.294793	0.796724
0	H	0.306476	0.294825	0.200567
0	C	0.22027	0.693452	0.937025
0	C	0.766521	0.693806	0.0604224
0	C	0.718962	0.192626	0.937703
0	C	0.267838	0.192948	0.0598166
0	H	0.231515	0.750434	0.834108
0	H	0.755297	0.750905	0.163323
0	H	0.730273	0.24926	0.834721
0	H	0.25655	0.249687	0.162805
0	H	0.229897	0.719771	0.0828062
0	H	0.756892	0.720149	0.914645
0	H	0.728588	0.218955	0.0834636
0	H	0.258209	0.219309	0.914075
0	C	0.221715	0.542403	0.90068
0	C	0.76502	0.542773	0.0967788
0	C	0.720282	0.0415169	0.901588
0	C	0.266466	0.0418464	0.0959056
0	H	0.242163	0.498467	0.95078
0	H	0.744549	0.499023	0.0468026
0	H	0.740669	0.997089	0.952012
0	H	0.246057	0.997609	0.0455862
0	C	0.212245	0.520674	0.683106
0	C	0.774509	0.520977	0.314321
0	C	0.710872	0.0198418	0.683906
0	C	0.275895	0.0200804	0.313547
0	H	0.216982	0.4197	0.637452
0	H	0.769745	0.42003	0.35998
0	H	0.715544	0.918792	0.638247
0	H	0.271202	0.919045	0.359173
0	H	0.223063	0.589335	0.592219
0	H	0.76372	0.589714	0.405268
0	H	0.721769	0.0883735	0.593326
0	H	0.265022	0.0886499	0.404217
0	C	0.180172	0.54796	0.665546
0	C	0.806592	0.548027	0.331702
0	C	0.678823	0.0477298	0.665789
0	C	0.307952	0.0477636	0.331505
0	H	0.174312	0.628531	0.562757
0	H	0.812492	0.62859	0.434425
0	H	0.673067	0.128346	0.562835
0	H	0.313747	0.128376	0.434389
0	H	0.167791	0.46097	0.611482
0	H	0.818946	0.460945	0.385733
0	H	0.666378	0.960934	0.611672
0	H	0.320376	0.960888	0.38557
0	C	0.197679	0.510009	0.215608
0	C	0.789002	0.510141	0.781687
0	C	0.696064	0.00987095	0.216056
0	C	0.290633	0.00998878	0.781269
0	H	0.196928	0.615366	0.254913
0	H	0.789803	0.615486	0.742382
0	H	0.695369	0.115256	0.255333
0	H	0.291371	0.115365	0.742005
0	H	0.217471	0.47023	0.287885
0	H	0.769175	0.470616	0.709532
0	H	0.715793	0.969762	0.288844
0	H	0.270875	0.970107	0.708594
0	H	0.18034	0.461604	0.279325
0	H	0.806297	0.461514	0.717801
0	H	0.678649	0.961758	0.279338
0	H	0.308013	0.961695	0.717831
0	C	0.190535	0.339921	0.960349
0	C	0.796103	0.339998	0.0368864
0	C	0.688934	0.839706	0.960947
0	C	0.297719	0.839755	0.0363029
0	H	0.170349	0.309056	0.0069074
0	H	0.816256	0.308895	0.990068
0	H	0.668788	0.808906	0.00821054
0	H	0.317832	0.808727	0.988795
0	H	0.206959	0.279328	0.0393107
0	H	0.779631	0.279592	0.958104
0	H	0.705397	0.779004	0.0393211
0	H	0.281212	0.779254	0.958062
0	H	0.190126	0.311562	0.807689
0	H	0.796537	0.311653	0.189555
0	H	0.688413	0.811397	0.808232
0	H	0.298261	0.81145	0.189018
0	C	0.174535	0.582949	0.876251
0	C	0.812215	0.58291	0.120927
0	C	0.673144	0.0830335	0.876276
0	C	0.313617	0.0829805	0.120954
0	O	0.127545	0.782105	0.713393
0	O	0.859205	0.781571	0.283856
0	O	0.626333	0.28399	0.713932
0	O	0.360423	0.283466	0.283414
0	O	0.116279	0.560678	0.575697
0	O	0.870583	0.560006	0.420852
0	O	0.615146	0.0632757	0.573523
0	O	0.371729	0.0626164	0.423094
0	O	0.179876	0.778743	0.0924638
0	O	0.806914	0.778785	0.904754
0	O	0.678552	0.278657	0.0925463
0	O	0.308246	0.278669	0.904711
0	C	0.18844	0.905379	0.135295
0	C	0.798336	0.905394	0.861875
0	C	0.686969	0.405514	0.13505
0	C	0.299805	0.405482	0.86213
0	O	0.199083	0.974857	0.0211486
0	O	0.787705	0.97492	0.976013
0	O	0.697646	0.474996	0.0210669
0	O	0.289134	0.475002	0.9761
0	C	0.183472	0.941372	0.339019
0	C	0.803258	0.941248	0.658005
0	C	0.681813	0.441891	0.338319
0	C	0.304911	0.441731	0.658713
0	H	0.164472	0.887308	0.380307
0	H	0.822231	0.887074	0.61651
0	H	0.662732	0.388175	0.378906
0	H	0.323968	0.387915	0.61789
0	C	0.208882	0.901308	0.481764
0	C	0.777804	0.901231	0.515621
0	C	0.707102	0.401661	0.482019
0	C	0.279576	0.401538	0.515402
0	O	0.219862	0.793725	0.484883
0	O	0.766783	0.793767	0.512849
0	O	0.717934	0.293732	0.486393
0	O	0.268703	0.29372	0.511366
0	C	0.217633	0.0158823	0.610242
0	C	0.769053	0.0157739	0.387055
0	C	0.715939	0.516471	0.609748
0	C	0.270736	0.516295	0.387559
0	H	0.240883	0.0204127	0.64665
0	H	0.745803	0.0202935	0.350675
0	H	0.739196	0.520696	0.645989
0	H	0.247479	0.520521	0.351367
0	H	0.209179	0.00379307	0.753359
0	H	0.7775	0.00369127	0.243924
0	H	0.707518	0.504865	0.75305
0	H	0.279152	0.504687	0.244232
0	C	0.205715	0.139351	0.505633
0	C	0.780974	0.13923	0.49172
0	C	0.704101	0.639905	0.504628
0	C	0.282581	0.639731	0.492694
0	H	0.221787	0.187867	0.425988
0	H	0.764922	0.18752	0.5718
0	H	0.72022	0.688101	0.4251
0	H	0.266484	0.687743	0.572616
0	H	0.199277	0.214372	0.608858
0	H	0.787343	0.214407	0.388506
0	H	0.697657	0.715107	0.607536
0	H	0.288962	0.715067	0.38976
0	C	0.18036	0.0930959	0.363581
0	C	0.806394	0.0929404	0.633229
0	C	0.678769	0.593678	0.362325
0	C	0.307975	0.593494	0.634479
0	H	0.181325	0.143537	0.220533
0	H	0.805528	0.143496	0.776286
0	H	0.679805	0.643825	0.219127
0	H	0.307036	0.643737	0.777684
0	C	0.15362	0.130136	0.439872
0	C	0.833076	0.129752	0.555976
0	C	0.652035	0.631421	0.438153
0	C	0.334653	0.631024	0.557725
0	O	0.14422	0.257846	0.379946
0	O	0.842677	0.257002	0.616681
0	O	0.642785	0.759265	0.377653
0	O	0.344101	0.758418	0.619008
0	C	0.120167	0.281471	0.472432
0	C	0.866595	0.280615	0.522739
0	C	0.618765	0.783858	0.470013
0	C	0.36799	0.783012	0.525229
0	H	0.111497	0.378611	0.443391
0	H	0.875389	0.377468	0.552244
0	H	0.610223	0.88118	0.440585
0	H	0.376651	0.880059	0.555127
0	C	0.114408	0.174821	0.582481
0	C	0.872092	0.174374	0.411117
0	C	0.612872	0.677683	0.580536
0	C	0.373626	0.677229	0.413158
0	H	0.0974514	0.162188	0.669634
0	H	0.88889	0.161843	0.322575
0	H	0.595902	0.665818	0.667791
0	H	0.390443	0.665473	0.324542
0	C	0.136003	0.077477	0.562075
0	C	0.850459	0.0773164	0.431996
0	C	0.634344	0.579629	0.560553
0	C	0.352115	0.579456	0.433597
0	H	0.137232	0.98199	0.632746
0	H	0.849067	0.982107	0.360595
0	H	0.635449	0.484281	0.631671
0	H	0.350849	0.484386	0.361718
0	N	0.0893023	0.636447	0.84824
0	N	0.897431	0.636296	0.147949
0	N	0.587932	0.137764	0.845578
0	N	0.398808	0.13765	0.150641
0	C	0.0737573	0.508119	0.838234
0	C	0.913038	0.508119	0.157775
0	C	0.572629	0.00885275	0.835919
0	C	0.414169	0.00888751	0.160094
0	H	0.0835104	0.441743	0.73387
0	H	0.903322	0.441567	0.262114
0	H	0.582392	0.943115	0.730744
0	H	0.404444	0.942963	0.26524
0	C	0.0761633	0.440577	0.0381638
0	C	0.910654	0.440634	0.957802
0	C	0.575274	0.940774	0.0355273
0	C	0.411543	0.940886	0.960433
0	H	0.0984408	0.420874	0.0894441
0	H	0.888381	0.420744	0.906587
0	H	0.597606	0.922269	0.086521
0	H	0.389216	0.922211	0.909467
0	H	0.0685531	0.507574	0.147195
0	H	0.918222	0.507767	0.848761
0	H	0.567494	0.00698162	0.144936
0	H	0.419288	0.00719798	0.851003
0	C	0.0594119	0.311482	0.0313242
0	C	0.927459	0.311695	0.964537
0	C	0.55888	0.810698	0.0278303
0	C	0.427988	0.81094	0.96803
0	H	0.0603573	0.268875	0.178395
0	H	0.92654	0.269231	0.817408
0	H	0.55994	0.767646	0.174723
0	H	0.426957	0.768008	0.821058
0	H	0.0692871	0.236195	0.943399
0	H	0.917601	0.236248	0.0522882
0	H	0.568953	0.73638	0.939522
0	H	0.417927	0.736445	0.0561549
0	C	0.0287144	0.332383	0.949571
0	C	0.958147	0.332797	0.046429
0	C	0.528127	0.829845	0.946282
0	C	0.458733	0.830234	0.0497164
0	H	0.0179591	0.394242	0.0503787
0	H	0.96889	0.394721	0.945639
0	H	0.51721	0.890316	0.0480065
0	H	0.469644	0.890727	0.947984
0	H	0.0175188	0.236533	0.93991
0	H	0.969367	0.236993	0.0560781
0	H	0.517225	0.733227	0.935524
0	H	0.469649	0.733652	0.060582
0	C	0.0266465	0.398665	0.750473
0	C	0.960183	0.399082	0.245496
0	C	0.525781	0.897447	0.748003
0	C	0.461056	0.897887	0.24797
0	H	0.0043692	0.415792	0.696515
0	H	0.982456	0.416357	0.29953
0	H	0.503442	0.913585	0.694865
0	H	0.48339	0.914191	0.301122
0	H	0.0350389	0.331606	0.644687
0	H	0.951811	0.331932	0.351266
0	H	0.534282	0.831693	0.641124
0	H	0.452569	0.832081	0.354856
0	C	0.0427197	0.530057	0.759035
0	C	0.944068	0.530343	0.23689
0	C	0.541505	0.0297359	0.758178
0	C	0.445289	0.0300611	0.237714
0	H	0.0416727	0.575689	0.614211
0	H	0.945107	0.57603	0.381671
0	H	0.540238	0.0766824	0.614163
0	H	0.446551	0.0770741	0.381692
0	H	0.0327446	0.601644	0.850813
0	H	0.95401	0.601963	0.144985
0	H	0.531454	0.0999098	0.851714
0	H	0.455304	0.100292	0.14407
0	C	0.0798863	0.741222	0.977461
0	C	0.906752	0.741212	0.0185648
0	C	0.578507	0.241597	0.976223
0	C	0.408138	0.241635	0.0198464
0	H	0.0588541	0.709604	0.0206737
0	H	0.927777	0.709838	0.97495
0	H	0.557442	0.209718	0.0186223
0	H	0.429201	0.210012	0.977098
0	C	0.0757506	0.873864	0.868716
0	C	0.910862	0.87385	0.127377
0	C	0.574404	0.374774	0.869007
0	C	0.412206	0.374809	0.127151
0	H	0.0959478	0.908972	0.821192
0	H	0.890681	0.908562	0.17562
0	H	0.594627	0.410426	0.822676
0	H	0.391995	0.410048	0.174189
0	H	0.0613807	0.860881	0.735351
0	H	0.925327	0.860975	0.260339
0	H	0.560127	0.362425	0.735026
0	H	0.426577	0.362571	0.260733
0	C	0.0642349	0.977657	0.999947
0	C	0.922204	0.977984	0.995915
0	C	0.562735	0.477469	0.0011936
0	C	0.423703	0.477878	0.994754
0	H	0.0623353	0.0741107	0.923015
0	H	0.924081	0.0744093	0.0729766
0	H	0.560841	0.57424	0.925222
0	H	0.42556	0.57463	0.070848
0	H	0.0427611	0.950598	0.0303104
0	H	0.94367	0.951357	0.96484
0	H	0.541242	0.449913	0.0305414
0	H	0.445192	0.450772	0.96472
0	C	0.0832998	0.993425	0.190041
0	C	0.903015	0.993578	0.806363
0	C	0.581699	0.492426	0.191876
0	C	0.404621	0.492643	0.804573
0	H	0.0740076	0.0648063	0.285478
0	H	0.912153	0.0653694	0.710779
0	H	0.572273	0.562856	0.288072
0	H	0.413893	0.563491	0.708223
0	H	0.103701	0.0369132	0.161055
0	H	0.882591	0.0364709	0.836077
0	H	0.602082	0.536599	0.163926
0	H	0.384208	0.536191	0.833211
0	C	0.0884097	0.860774	0.294537
0	C	0.898005	0.860955	0.701688
0	C	0.586938	0.359328	0.294949
0	C	0.399491	0.359551	0.701336
0	H	0.103285	0.874278	0.426951
0	H	0.883078	0.874251	0.569508
0	H	0.601861	0.372573	0.427237
0	H	0.384519	0.372574	0.569232
0	H	0.0686901	0.824217	0.345305
0	H	0.917734	0.824918	0.650509
0	H	0.567283	0.322138	0.345823
0	H	0.419164	0.322884	0.650087
0	C	0.100208	0.75759	0.163253
0	C	0.886363	0.757342	0.83305
0	C	0.598765	0.256938	0.162554
0	C	0.387818	0.256728	0.833786
0	H	0.121247	0.789592	0.129389
0	H	0.865303	0.788764	0.867258
0	H	0.61983	0.289084	0.129507
0	H	0.366726	0.288294	0.867132
0	H	0.103226	0.66251	0.242411
0	H	0.883426	0.662274	0.753754
0	H	0.601727	0.161427	0.240688
0	H	0.384942	0.161233	0.755498
