#******************************************
#
# CIF file created by Zeo++
# Zeo++ is an open source package to
# analyze microporous materials
#
#*******************************************

_cell_length_a		4.53125(0)
_cell_length_b		10.467(0)
_cell_length_c		12.1983(0)
_cell_angle_alpha		90.3861(0)
_cell_angle_beta		95.1526(0)
_cell_angle_gamma		88.1958(0)

_symmetry_space_group_name_H-M		'P1'
_symmetry_Int_Tables_number		1
_symmetry_cell_setting		Triclinic

loop_
_symmetry_equiv_pos_as_xyz
'+x,+y,+z'

loop_
_atom_site_label
_atom_site_type_symbol
_atom_site_fract_x
_atom_site_fract_y
_atom_site_fract_z
0	N	0.793175	0.510526	0.864258
0	O	0.898084	0.561583	0.964046
0	O	0.936854	0.386375	0.861555
0	O	0.254811	0.637055	0.139026
0	H	0.103681	0.57318	0.144241
0	O	0.944837	0.568684	0.573061
0	O	0.388306	0.659612	0.617636
0	O	0.512313	0.276061	0.799235
0	C	0.104856	0.66642	0.949017
0	H	0.974224	0.751283	0.974685
0	C	0.154063	0.668703	0.826667
0	H	0.147284	0.767705	0.794516
0	H	0.376813	0.629127	0.80681
0	C	0.90243	0.591255	0.773457
0	H	0.698301	0.654845	0.746981
0	C	0.970138	0.501137	0.677683
0	H	0.214818	0.45985	0.688313
0	C	0.733031	0.402873	0.669873
0	H	0.495871	0.449364	0.674635
0	H	0.712453	0.350774	0.59119
0	C	0.80041	0.31564	0.769878
0	H	0.962667	0.234802	0.760912
0	C	0.364582	0.635221	0.0328289
0	H	0.476691	0.541371	0.0181145
0	H	0.532941	0.710715	0.0401084
0	C	0.175265	0.645005	0.551376
0	C	0.112781	0.705456	0.443503
0	C	0.853466	0.679699	0.377172
0	H	0.705515	0.606291	0.401636
0	C	0.785868	0.747978	0.279865
0	H	0.58786	0.724521	0.225323
0	C	0.97629	0.841941	0.250121
0	H	0.920367	0.896641	0.175271
0	C	0.238882	0.864399	0.314808
0	H	0.399026	0.931143	0.288956
0	C	0.310457	0.796057	0.411701
0	H	0.512353	0.814358	0.465547
0	C	0.545818	0.174035	0.880979
0	H	0.790964	0.161638	0.908641
0	C	0.368398	0.2083	0.977799
0	H	0.134534	0.23441	0.947602
0	H	0.457082	0.295095	0.0189152
0	C	0.371727	0.0962429	0.0585776
0	H	0.596717	0.0826726	0.101685
0	H	0.231076	0.120562	0.125727
0	C	0.284044	0.969569	0.00105052
0	H	0.0362882	0.971038	0.970607
0	H	0.31078	0.890786	0.0618939
0	C	0.481728	0.946958	0.908747
0	H	0.727735	0.948886	0.943383
0	H	0.453371	0.853091	0.867635
0	C	0.415299	0.0544828	0.823189
0	H	0.165923	0.0704446	0.808171
0	C	0.537361	0.030974	0.714097
0	C	0.381503	0.0831519	0.618016
0	H	0.190865	0.148246	0.624317
0	C	0.504538	0.0665918	0.516836
0	H	0.388851	0.105207	0.441547
0	C	0.775771	0.00144186	0.511661
0	H	0.874335	0.990749	0.433761
0	C	0.928487	0.94784	0.606547
0	H	0.125084	0.885158	0.601626
0	C	0.802105	0.961597	0.707396
0	H	0.915932	0.918254	0.781537
