#******************************************
#
# CIF file created by Zeo++
# Zeo++ is an open source package to
# analyze microporous materials
#
#*******************************************

_cell_length_a		33.5013(0)
_cell_length_b		33.6136(0)
_cell_length_c		4.91087(0)
_cell_angle_alpha		90(0)
_cell_angle_beta		90(0)
_cell_angle_gamma		121.963(0)

_symmetry_space_group_name_H-M		'P1'
_symmetry_Int_Tables_number		1
_symmetry_cell_setting		Monoclinic

loop_
_symmetry_equiv_pos_as_xyz
'+x,+y,+z'

loop_
_atom_site_label
_atom_site_type_symbol
_atom_site_fract_x
_atom_site_fract_y
_atom_site_fract_z
0	N	0.336845	0.0797905	0.519993
0	N	0.00633497	0.280318	0.519624
0	N	0.805913	0.749561	0.544603
0	N	0.758756	0.991277	0.251445
0	N	0.0894431	0.790494	0.248232
0	N	0.289789	0.32243	0.230232
0	N	0.00489878	0.399352	0.810746
0	N	0.684814	0.634824	0.886301
0	N	0.457345	0.0807527	0.801307
0	N	0.401987	0.320093	0.596916
0	N	0.758792	0.103559	0.633786
0	N	0.978816	0.671976	0.620867
0	N	0.693001	0.750781	0.179909
0	N	0.336436	0.967937	0.133091
0	N	0.117086	0.399875	0.149009
0	N	0.0900604	0.671165	0.962409
0	N	0.410685	0.43668	0.886627
0	N	0.638213	0.991196	0.963865
0	N	0.373566	0.097542	0.693081
0	N	0.991475	0.299122	0.70561
0	N	0.788765	0.716613	0.741012
0	N	0.722187	0.97419	0.0774757
0	N	0.104455	0.771709	0.0630912
0	N	0.307073	0.355352	0.0336339
0	N	0.036832	0.417113	0.0130989
0	N	0.668273	0.650015	0.0843164
0	N	0.439741	0.0486244	0.00223057
0	N	0.366496	0.30127	0.415453
0	N	0.777183	0.0865637	0.459397
0	N	0.995313	0.707861	0.444073
0	N	0.728451	0.769684	0.361581
0	N	0.318019	0.984952	0.307196
0	N	0.100672	0.363938	0.325366
0	N	0.0581496	0.653523	0.759882
0	N	0.427113	0.421309	0.688988
0	N	0.655587	0.0232236	0.762406
0	N	0.427521	0.174152	0.249621
0	N	0.913863	0.270937	0.262827
0	N	0.820745	0.668752	0.274911
0	N	0.667447	0.897347	0.521522
0	N	0.18222	0.799853	0.507155
0	N	0.275375	0.403412	0.499247
0	N	0.0881263	0.505616	0.511591
0	N	0.579495	0.6139	0.578086
0	N	0.469496	0.993373	0.500626
0	N	0.315026	0.220999	0.874587
0	N	0.855107	0.113839	0.914279
0	N	0.967579	0.756133	0.900616
0	N	0.779577	0.849514	0.903871
0	N	0.239831	0.957524	0.851513
0	N	0.128556	0.315933	0.869592
0	N	0.00604209	0.564397	0.264861
0	N	0.515479	0.457101	0.192423
0	N	0.625284	0.0780301	0.264309
0	C	0.305958	0.0949922	0.583778
0	C	0.987324	0.232147	0.567791
0	C	0.855386	0.778064	0.553455
0	C	0.788799	0.97497	0.189469
0	C	0.108207	0.838582	0.199067
0	C	0.240312	0.294041	0.220994
0	C	0.985665	0.427003	0.757702
0	C	0.656018	0.586084	0.845971
0	C	0.505281	0.0982626	0.752563
0	C	0.432359	0.303374	0.560233
0	C	0.775373	0.151124	0.581556
0	C	0.930631	0.638661	0.578193
0	C	0.662473	0.767319	0.21645
0	C	0.319631	0.920303	0.184588
0	C	0.165224	0.433335	0.192141
0	C	0.108621	0.643013	0.0181314
0	C	0.439185	0.485545	0.923155
0	C	0.590275	0.973556	0.013572
0	C	0.325229	0.124031	0.812748
0	C	0.959097	0.220964	0.800743
0	C	0.869479	0.761196	0.770453
0	C	0.769108	0.945904	0.960986
0	C	0.13657	0.849796	0.966686
0	C	0.226378	0.310973	0.0035484
0	C	0.00858201	0.465398	0.9366
0	C	0.618441	0.570373	0.0296409
0	C	0.517684	0.074125	0.933448
0	C	0.413688	0.271656	0.342299
0	C	0.806521	0.164154	0.36122
0	C	0.916658	0.655862	0.36189
0	C	0.681022	0.799043	0.434428
0	C	0.288359	0.907275	0.404302
0	C	0.179264	0.416188	0.408377
0	C	0.0852824	0.604416	0.840842
0	C	0.476451	0.50115	0.737413
0	C	0.577642	0.997546	0.833012
0	H	0.311811	0.142648	0.917403
0	H	0.938151	0.187182	0.896064
0	H	0.904865	0.774324	0.83858
0	H	0.781847	0.926571	0.857763
0	H	0.157459	0.883551	0.87108
0	H	0.191042	0.297947	0.934872
0	H	0.00380144	0.49454	0.953987
0	H	0.589041	0.535079	0.0559405
0	H	0.55134	0.0775815	0.955228
0	H	0.426825	0.251189	0.258811
0	H	0.826984	0.198196	0.268185
0	H	0.881961	0.640777	0.27691
0	H	0.667786	0.819444	0.517612
0	H	0.267776	0.873208	0.496907
0	H	0.213963	0.431388	0.493605
0	H	0.0895392	0.57492	0.825556
0	H	0.505582	0.536502	0.708259
0	H	0.543932	0.993993	0.81221
0	C	0.367629	0.125316	0.874764
0	C	0.961912	0.263335	0.880506
0	C	0.827271	0.722834	0.883417
0	C	0.727349	0.945734	0.897272
0	C	0.133969	0.807487	0.887985
0	C	0.268663	0.349249	0.890716
0	C	0.0393839	0.457702	0.0969476
0	C	0.627398	0.610805	0.17783
0	C	0.476479	0.0442311	0.0897148
0	C	0.372468	0.270913	0.256843
0	C	0.807038	0.123171	0.289819
0	C	0.957817	0.699104	0.282002
0	C	0.722292	0.79991	0.520287
0	C	0.28796	0.948304	0.47594
0	C	0.138187	0.372832	0.48772
0	C	0.0549236	0.612488	0.678723
0	C	0.467623	0.460518	0.59196
0	C	0.618712	0.0274527	0.675718
0	C	0.400761	0.151917	0.0806966
0	C	0.936125	0.268329	0.0913969
0	C	0.823321	0.693046	0.0995093
0	C	0.694177	0.919437	0.690917
0	C	0.159872	0.802504	0.677824
0	C	0.272724	0.379063	0.674499
0	C	0.0670298	0.484424	0.321747
0	C	0.600884	0.612832	0.395965
0	C	0.472086	0.0154888	0.312756
0	C	0.340704	0.243529	0.047068
0	C	0.833569	0.118088	0.0835582
0	C	0.962881	0.73045	0.0727997
0	C	0.753957	0.827163	0.730742
0	C	0.261374	0.953353	0.681976
0	C	0.133194	0.341528	0.696976
0	C	0.027187	0.585698	0.454384
0	C	0.494059	0.458317	0.373915
0	C	0.622858	0.0560208	0.452336
0	C	0.263533	0.0823004	0.431644
0	C	0.995473	0.201507	0.400203
0	C	0.883271	0.814648	0.3543
0	C	0.830905	0.986599	0.341847
0	C	0.0996665	0.869066	0.36563
0	C	0.212231	0.257452	0.419812
0	C	0.950681	0.415641	0.546048
0	C	0.665429	0.561391	0.636299
0	C	0.532273	0.132724	0.541224
0	C	0.474377	0.318095	0.72177
0	C	0.760985	0.178688	0.733577
0	C	0.903735	0.59533	0.732926
0	C	0.620396	0.752292	0.0548905
0	C	0.333795	0.892571	0.0323583
0	C	0.191998	0.476711	0.0376863
0	C	0.143487	0.654171	0.230222
0	C	0.429836	0.510424	0.131928
0	C	0.563447	0.939032	0.224814
0	C	0.251928	0.0571258	0.187152
0	C	0.0219153	0.216476	0.15988
0	C	0.864056	0.836399	0.206223
0	C	0.843068	0.0117545	0.586542
0	C	0.073175	0.854026	0.605801
0	C	0.231113	0.235384	0.567895
0	C	0.925122	0.370493	0.429124
0	C	0.710161	0.582004	0.513666
0	C	0.515717	0.159354	0.419803
0	C	0.48318	0.34256	0.96729
0	C	0.73672	0.163162	0.981091
0	C	0.919834	0.588642	0.981629
0	C	0.611831	0.727877	0.809363
0	C	0.358043	0.907971	0.784726
0	C	0.175865	0.483327	0.788918
0	C	0.169388	0.699341	0.346647
0	C	0.385232	0.489779	0.25611
0	C	0.580193	0.912484	0.345186
0	H	0.273507	0.044338	0.106754
0	H	0.0396414	0.252956	0.0940743
0	H	0.828617	0.828582	0.24905
0	H	0.822196	0.0253467	0.666981
0	H	0.0556151	0.817577	0.671869
0	H	0.266467	0.242944	0.525473
0	H	0.926494	0.341524	0.518746
0	H	0.74018	0.614227	0.595147
0	H	0.485475	0.159147	0.504466
0	H	0.458833	0.352053	0.0446914
0	H	0.727253	0.129377	0.0670856
0	H	0.953273	0.615954	0.0677878
0	H	0.636431	0.718712	0.731994
0	H	0.367709	0.94182	0.698751
0	H	0.142511	0.455904	0.702495
0	H	0.168348	0.728457	0.256486
0	H	0.355213	0.45738	0.176304
0	H	0.610458	0.912838	0.259689
0	C	0.210989	0.0463391	0.0442987
0	C	0.0275703	0.184677	0.00333952
0	C	0.890425	0.868711	0.00195069
0	C	0.883613	0.0213595	0.729671
0	C	0.0672685	0.885684	0.762034
0	C	0.204509	0.203058	0.771621
0	C	0.897914	0.362326	0.197185
0	C	0.716622	0.561527	0.284947
0	C	0.537643	0.186188	0.188714
0	C	0.524716	0.356888	0.114247
0	C	0.722739	0.190386	0.120143
0	C	0.893695	0.5458	0.121454
0	C	0.570219	0.713151	0.66235
0	C	0.371696	0.880502	0.645407
0	C	0.201855	0.526214	0.649388
0	C	0.196504	0.707328	0.578794
0	C	0.378898	0.510448	0.484376
0	C	0.558406	0.885536	0.576085
0	H	0.2014	0.0249599	0.860526
0	H	0.0497207	0.19721	0.82109
0	H	0.874937	0.885073	0.887148
0	H	0.893569	0.0425524	0.914309
0	H	0.0451181	0.873111	0.944168
0	H	0.21974	0.18643	0.88626
0	H	0.879084	0.327401	0.106588
0	H	0.751318	0.578227	0.190438
0	H	0.523874	0.205913	0.0946797
0	H	0.532056	0.377748	0.298661
0	H	0.701892	0.176721	0.305809
0	H	0.907925	0.540252	0.30743
0	H	0.563099	0.692342	0.47794
0	H	0.392544	0.894057	0.459663
0	H	0.187603	0.531681	0.463253
0	H	0.215625	0.742279	0.668931
0	H	0.344294	0.493722	0.580048
0	H	0.572291	0.865842	0.6692
0	C	0.181712	0.0605742	0.148367
0	C	0.00699402	0.138349	0.088661
0	C	0.935916	0.879524	0.942345
0	C	0.911969	0.00601317	0.625546
0	C	0.0876176	0.931967	0.676273
0	C	0.159113	0.192561	0.830866
0	C	0.894866	0.398575	0.0784408
0	C	0.678979	0.520069	0.174847
0	C	0.576795	0.187647	0.0751997
0	C	0.557312	0.346765	0.0133181
0	C	0.733008	0.233062	0.00923223
0	C	0.851391	0.50983	0.0109567
0	C	0.537283	0.722807	0.76323
0	C	0.361057	0.837677	0.755936
0	C	0.244033	0.562318	0.760415
0	C	0.199085	0.670859	0.698336
0	C	0.416554	0.552101	0.592491
0	C	0.519218	0.883898	0.690521
0	H	0.150077	0.0524632	0.0381283
0	H	0.0109962	0.113622	0.967113
0	H	0.95602	0.904018	0.779569
0	H	0.943231	0.0131111	0.736299
0	H	0.0835247	0.956662	0.797513
0	H	0.138833	0.168079	0.993379
0	H	0.874257	0.392234	0.894512
0	H	0.684025	0.504624	0.993718
0	H	0.593382	0.208042	0.892291
0	H	0.589662	0.358065	0.125325
0	H	0.722112	0.254236	0.115186
0	H	0.83103	0.476527	0.117932
0	H	0.504868	0.711186	0.651212
0	H	0.371604	0.816268	0.649381
0	H	0.264255	0.595667	0.653781
0	H	0.219641	0.677076	0.882357
0	H	0.411624	0.567678	0.773389
0	H	0.502752	0.86342	0.873354
0	C	0.192908	0.0852669	0.394626
0	C	0.980844	0.123307	0.330596
0	C	0.955587	0.858726	0.0935329
0	C	0.900243	0.981356	0.379026
0	C	0.113692	0.947018	0.434197
0	C	0.139751	0.213642	0.679561
0	C	0.917729	0.44263	0.203714
0	C	0.635157	0.498175	0.304545
0	C	0.594999	0.163481	0.204201
0	C	0.548601	0.322193	0.768068
0	C	0.757182	0.2487	0.761632
0	C	0.835114	0.516389	0.762657
0	C	0.545746	0.747318	0.00851312
0	C	0.336916	0.822173	0.00370224
0	C	0.260356	0.555827	0.00874792
0	C	0.175842	0.626747	0.573747
0	C	0.460228	0.574032	0.460988
0	C	0.500804	0.907943	0.562477
0	H	0.169993	0.0963838	0.474083
0	H	0.964472	0.0868484	0.393925
0	H	0.991254	0.867212	0.048822
0	H	0.922385	0.969291	0.2996
0	H	0.129841	0.983423	0.370707
0	H	0.10413	0.20538	0.723714
0	H	0.914869	0.470973	0.117903
0	H	0.60578	0.465366	0.224309
0	H	0.626066	0.165045	0.121981
0	H	0.574096	0.314156	0.692038
0	H	0.765022	0.282032	0.676743
0	H	0.802123	0.488089	0.677959
0	H	0.519978	0.754974	0.0845014
0	H	0.328802	0.788736	0.0883873
0	H	0.293249	0.584231	0.0937998
0	H	0.178299	0.598205	0.660323
0	H	0.48958	0.607002	0.539614
0	H	0.469669	0.906183	0.645184
0	C	0.233573	0.0964684	0.536835
0	C	0.974941	0.154338	0.486796
0	C	0.929526	0.826415	0.297758
0	C	0.85995	0.971296	0.236667
0	C	0.119878	0.91614	0.278288
0	C	0.166042	0.245947	0.475767
0	C	0.945609	0.451281	0.434245
0	C	0.62819	0.518692	0.532107
0	C	0.572917	0.136064	0.434099
0	C	0.5074	0.307529	0.62194
0	C	0.771643	0.222191	0.62352
0	C	0.860598	0.558886	0.623303
0	C	0.587034	0.762392	0.154687
0	C	0.322809	0.848945	0.142193
0	C	0.235038	0.513268	0.147659
0	C	0.148086	0.618294	0.342908
0	C	0.467063	0.553359	0.233764
0	C	0.522744	0.935474	0.332678
0	H	0.2434	0.118049	0.720172
0	H	0.95283	0.141909	0.668776
0	H	0.94485	0.8099	0.413013
0	H	0.849682	0.949713	0.0531569
0	H	0.141998	0.928653	0.0963135
0	H	0.150928	0.262652	0.360383
0	H	0.963954	0.486057	0.526584
0	H	0.593586	0.501753	0.627993
0	H	0.587013	0.116742	0.529485
0	H	0.499857	0.286445	0.438276
0	H	0.792705	0.235896	0.43879
0	H	0.846454	0.564535	0.437491
0	H	0.594358	0.783416	0.338372
0	H	0.301751	0.835347	0.327044
0	H	0.24924	0.507666	0.333371
0	H	0.129451	0.583499	0.250909
0	H	0.501542	0.570341	0.136194
0	H	0.508486	0.954707	0.238063
0	H	0.332972	0.0565001	0.371572
0	H	0.0302944	0.301109	0.373236
0	H	0.783556	0.752392	0.414878
0	H	0.763137	0.0149446	0.398682
0	H	0.0653669	0.769681	0.393989
0	H	0.312072	0.31955	0.360211
0	H	0.996868	0.368753	0.7167
0	H	0.715917	0.657827	0.790245
0	H	0.436376	0.0902261	0.705751
0	H	0.406882	0.346786	0.721732
0	H	0.732549	0.0813244	0.764922
0	H	0.00164292	0.669292	0.747594
0	H	0.68827	0.724187	0.0547035
0	H	0.362764	0.990189	0.00241737
0	H	0.09424	0.402475	0.0220496
0	H	0.0985593	0.702046	0.0546839
0	H	0.3798	0.413704	0.984786
0	H	0.659324	0.981888	0.0591727
