#******************************************
#
# CIF file created by Zeo++
# Zeo++ is an open source package to
# analyze microporous materials
#
#*******************************************

_cell_length_a		14.8731(0)
_cell_length_b		14.6502(0)
_cell_length_c		9.87439(0)
_cell_angle_alpha		90(0)
_cell_angle_beta		90(0)
_cell_angle_gamma		119.58(0)

_symmetry_space_group_name_H-M		'P1'
_symmetry_Int_Tables_number		1
_symmetry_cell_setting		Monoclinic

loop_
_symmetry_equiv_pos_as_xyz
'+x,+y,+z'

loop_
_atom_site_label
_atom_site_type_symbol
_atom_site_fract_x
_atom_site_fract_y
_atom_site_fract_z
0	C	0.520498	0.247071	0.882445
0	C	0.789444	0.297783	0.209308
0	C	0.731837	0.518886	0.542333
0	C	0.499678	0.792766	0.382397
0	C	0.230153	0.741795	0.709233
0	C	0.288741	0.52204	0.0420094
0	H	0.542193	0.210303	0.969935
0	H	0.826354	0.355532	0.297245
0	H	0.674605	0.496632	0.630543
0	H	0.477903	0.830043	0.469156
0	H	0.194782	0.683242	0.796789
0	H	0.346186	0.543883	0.129898
0	N	0.561114	0.362001	0.912984
0	N	0.675917	0.226461	0.240023
0	N	0.804743	0.477066	0.57192
0	N	0.457845	0.677678	0.413522
0	N	0.343588	0.814401	0.738781
0	N	0.216304	0.564272	0.0722185
0	H	0.636499	0.395902	0.950648
0	H	0.642795	0.270885	0.273387
0	H	0.763172	0.400391	0.608849
0	H	0.383042	0.644933	0.452705
0	H	0.377832	0.770747	0.770715
0	H	0.258285	0.641204	0.108494
0	H	0.513452	0.373314	0.984368
0	H	0.663872	0.168854	0.314893
0	H	0.862467	0.52437	0.644306
0	H	0.505949	0.665932	0.483723
0	H	0.355441	0.871367	0.814456
0	H	0.158919	0.517383	0.145304
0	H	0.563164	0.403546	0.825187
0	H	0.634643	0.184545	0.153688
0	H	0.844004	0.475337	0.484107
0	H	0.454172	0.635556	0.32547
0	H	0.38377	0.85701	0.652218
0	H	0.176254	0.565474	0.98493
0	C	0.401648	0.186819	0.864696
0	C	0.846892	0.234897	0.189909
0	C	0.79045	0.639678	0.525983
0	C	0.618653	0.851593	0.365997
0	C	0.170427	0.80268	0.693332
0	C	0.229681	0.401259	0.0253967
0	H	0.380153	0.103315	0.839504
0	H	0.929053	0.2943	0.162724
0	H	0.730471	0.661732	0.49607
0	H	0.641323	0.935084	0.339169
0	H	0.0885823	0.742109	0.666411
0	H	0.289367	0.378523	0.996734
0	C	0.34886	0.185519	0.998052
0	C	0.848804	0.182462	0.323097
0	C	0.8364	0.692038	0.661904
0	C	0.670214	0.853177	0.500549
0	C	0.167509	0.852201	0.828501
0	C	0.182284	0.34916	0.160952
0	H	0.367882	0.264916	0.0311458
0	H	0.770599	0.125	0.358055
0	H	0.894295	0.672233	0.699963
0	H	0.65158	0.773931	0.533959
0	H	0.245256	0.909607	0.864912
0	H	0.124202	0.36935	0.197185
0	H	0.370565	0.148771	0.0800253
0	H	0.887081	0.240187	0.404428
0	H	0.775819	0.669308	0.739978
0	H	0.647045	0.889159	0.581859
0	H	0.129299	0.792365	0.908157
0	H	0.241942	0.371812	0.2402
0	H	0.264546	0.140226	0.987626
0	H	0.891302	0.139456	0.3107
0	H	0.875447	0.777736	0.652519
0	H	0.754613	0.899198	0.49166
0	H	0.123986	0.894321	0.818554
0	H	0.142935	0.263464	0.151855
0	C	0.366996	0.232438	0.748528
0	C	0.798963	0.15407	0.0746662
0	C	0.874197	0.676221	0.415383
0	C	0.653066	0.803824	0.252071
0	C	0.216066	0.885193	0.579594
0	C	0.14731	0.366027	0.913135
0	H	0.358162	0.299162	0.785134
0	H	0.733024	0.0799072	0.112911
0	H	0.948937	0.690769	0.459423
0	H	0.663181	0.73862	0.291884
0	H	0.276869	0.961806	0.620474
0	H	0.0743405	0.358309	0.953952
0	H	0.428123	0.267385	0.668869
0	H	0.764438	0.18241	0.996108
0	H	0.854303	0.613145	0.339127
0	H	0.591147	0.766158	0.173814
0	H	0.256553	0.862483	0.503149
0	H	0.171897	0.427548	0.833451
0	C	0.266681	0.14906	0.683913
0	C	0.878306	0.131668	0.00731385
0	C	0.888874	0.774927	0.343833
0	C	0.75218	0.885939	0.183727
0	C	0.133067	0.899956	0.508588
0	C	0.126707	0.26311	0.847905
0	H	0.2737	0.0815784	0.648019
0	H	0.944565	0.204034	0.968933
0	H	0.815665	0.763178	0.301211
0	H	0.744045	0.951948	0.145212
0	H	0.0693925	0.824651	0.472242
0	H	0.197967	0.268951	0.806684
0	H	0.246531	0.181575	0.595904
0	H	0.843543	0.0783872	0.920454
0	H	0.94402	0.795698	0.259395
0	H	0.771059	0.851301	0.0966904
0	H	0.165686	0.951675	0.41997
0	H	0.0717315	0.242499	0.763393
0	H	0.201883	0.118628	0.755227
0	H	0.908435	0.0953089	0.0773696
0	H	0.917929	0.842263	0.412573
0	H	0.818306	0.918537	0.252963
0	H	0.099526	0.934649	0.575884
0	H	0.0946243	0.197968	0.920294
0	C	0.578268	0.242588	0.756086
0	C	0.793955	0.362292	0.0843395
0	C	0.669219	0.460224	0.416579
0	C	0.442905	0.797487	0.255145
0	C	0.225676	0.678551	0.582911
0	C	0.351327	0.58077	0.916306
0	O	0.638335	0.326073	0.698095
0	O	0.71126	0.339053	0.0263985
0	O	0.693902	0.401787	0.355418
0	O	0.384523	0.714141	0.195527
0	O	0.307976	0.702697	0.523338
0	O	0.327149	0.639568	0.855085
0	N	0.55776	0.146178	0.711172
0	N	0.88788	0.439616	0.0404863
0	N	0.59076	0.476927	0.376164
0	N	0.461742	0.893538	0.211217
0	N	0.131664	0.600667	0.540108
0	N	0.429509	0.563638	0.875899
0	H	0.511323	0.0779132	0.769168
0	H	0.955638	0.461875	0.0979686
0	H	0.567597	0.521233	0.437169
0	H	0.507448	0.962204	0.268652
0	H	0.0646757	0.578498	0.599332
0	H	0.45256	0.519231	0.936909
0	C	0.623188	0.137957	0.604961
0	C	0.892843	0.515053	0.93737
0	C	0.51623	0.407241	0.273597
0	C	0.396192	0.900752	0.104339
0	C	0.126469	0.52477	0.437597
0	C	0.504447	0.633565	0.773793
0	H	0.655508	0.210739	0.540371
0	H	0.821614	0.474454	0.87196
0	H	0.556015	0.375365	0.207317
0	H	0.365914	0.828485	0.0389305
0	H	0.198066	0.564362	0.372813
0	H	0.465118	0.666107	0.707876
0	C	0.557444	0.0425101	0.512325
0	C	0.988187	0.548832	0.844873
0	C	0.481899	0.470486	0.182376
0	C	0.46147	0.997327	0.013195
0	C	0.0318507	0.491797	0.343955
0	C	0.538329	0.570168	0.682261
0	O	0.484042	0.959818	0.555505
0	O	0.0716823	0.560754	0.887872
0	O	0.465521	0.539922	0.227057
0	O	0.534104	0.080115	0.0574831
0	O	0.948158	0.47959	0.386534
0	O	0.553758	0.499985	0.726521
0	O	0.587321	0.0549805	0.389798
0	O	0.974667	0.566527	0.722688
0	O	0.46838	0.44251	0.0588286
0	O	0.432138	0.985124	0.890421
0	O	0.0459947	0.474838	0.221766
0	O	0.552428	0.598471	0.558833
0	C	0.715154	0.128644	0.664964
0	C	0.896015	0.613888	0.00113989
0	C	0.419491	0.312572	0.337878
0	C	0.302043	0.906644	0.163282
0	C	0.120963	0.425221	0.502554
0	C	0.601263	0.727428	0.839127
0	H	0.758495	0.121458	0.576508
0	H	0.900806	0.66568	0.914588
0	H	0.369528	0.264698	0.251467
0	H	0.258573	0.913021	0.0742103
0	H	0.11148	0.370793	0.416831
0	H	0.651206	0.776417	0.7534
0	C	0.677988	0.0310428	0.753645
0	C	0.990721	0.675093	0.0913148
0	C	0.357363	0.348315	0.424384
0	C	0.335514	0.00301414	0.253201
0	C	0.0282167	0.368992	0.597336
0	C	0.663274	0.690426	0.923695
0	H	0.743232	0.0303472	0.805344
0	H	0.988176	0.740558	0.142548
0	H	0.294822	0.282049	0.479382
0	H	0.268702	0.00103528	0.303799
0	H	0.0257303	0.2994	0.643384
0	H	0.72447	0.755589	0.982072
0	H	0.636943	0.958358	0.693299
0	H	0.0628691	0.707562	0.0322315
0	H	0.322665	0.385041	0.361366
0	H	0.375276	0.0762376	0.19376
0	H	0.955064	0.344021	0.543408
0	H	0.699843	0.656538	0.858891
0	H	0.624284	0.027275	0.832954
0	H	0.995511	0.625309	0.171233
0	H	0.40604	0.406539	0.500789
0	H	0.389076	0.00782178	0.333341
0	H	0.0312196	0.419898	0.681237
0	H	0.614184	0.629541	0.997048
0	C	0.787647	0.228001	0.744086
0	C	0.795907	0.581924	0.0791221
0	C	0.451481	0.244408	0.419387
0	C	0.230935	0.805806	0.240666
0	C	0.22225	0.454354	0.57593
0	C	0.56929	0.794441	0.923211
0	H	0.756305	0.228552	0.845514
0	H	0.79046	0.537106	0.171467
0	H	0.483265	0.279141	0.519589
0	H	0.265049	0.801945	0.338284
0	H	0.232641	0.502225	0.66688
0	H	0.538007	0.758476	0.0230946
0	H	0.800846	0.299837	0.692835
0	H	0.727311	0.532657	0.0180529
0	H	0.510536	0.233341	0.367711
0	H	0.214982	0.735224	0.183796
0	H	0.289711	0.499042	0.51101
0	H	0.509769	0.805682	0.873313
0	H	0.863091	0.233627	0.760678
0	H	0.790783	0.650722	0.111802
0	H	0.385168	0.166422	0.43888
0	H	0.156607	0.800794	0.264236
0	H	0.224235	0.384134	0.610105
0	H	0.635453	0.872297	0.943539
