#******************************************
#
# CIF file created by Zeo++
# Zeo++ is an open source package to
# analyze microporous materials
#
#*******************************************

_cell_length_a		18.1073(0)
_cell_length_b		4.85139(0)
_cell_length_c		22.7791(0)
_cell_angle_alpha		90(0)
_cell_angle_beta		97.4654(0)
_cell_angle_gamma		90(0)

_symmetry_space_group_name_H-M		'P1'
_symmetry_Int_Tables_number		1
_symmetry_cell_setting		Monoclinic

loop_
_symmetry_equiv_pos_as_xyz
'+x,+y,+z'

loop_
_atom_site_label
_atom_site_type_symbol
_atom_site_fract_x
_atom_site_fract_y
_atom_site_fract_z
0	C	0.628778	0.0373306	0.544516
0	C	0.823968	0.538201	0.963104
0	C	0.324918	0.117315	0.457706
0	C	0.129034	0.609036	0.0387549
0	H	0.671537	0.972245	0.581595
0	H	0.779246	0.46841	0.927907
0	H	0.282177	0.18297	0.420658
0	H	0.173934	0.678089	0.0739329
0	H	0.600136	0.222581	0.561941
0	H	0.851012	0.721198	0.943463
0	H	0.35347	0.932032	0.440204
0	H	0.102059	0.425587	0.058275
0	C	0.573695	0.815105	0.527175
0	C	0.880039	0.317644	0.979252
0	C	0.3801	0.339212	0.475076
0	C	0.0730251	0.829965	0.0229275
0	C	0.603566	0.173218	0.426701
0	C	0.856066	0.68241	0.0803814
0	C	0.350094	0.981081	0.575519
0	C	0.0965317	0.466941	0.921255
0	C	0.618164	0.368754	0.37816
0	C	0.844758	0.882015	0.129059
0	C	0.335512	0.785072	0.623976
0	C	0.107694	0.268588	0.872285
0	H	0.619923	0.587101	0.396049
0	H	0.842495	0.0989155	0.110329
0	H	0.333913	0.566825	0.606029
0	H	0.109861	0.0511396	0.890703
0	C	0.483227	0.300076	0.340594
0	C	0.980698	0.810382	0.162607
0	C	0.4704	0.853971	0.661617
0	C	0.971767	0.340391	0.839098
0	H	0.467614	0.480638	0.368724
0	H	0.995625	0.986549	0.133195
0	H	0.485999	0.673599	0.63342
0	H	0.957093	0.162324	0.868176
0	C	0.480495	0.0257855	0.374765
0	C	0.980518	0.533052	0.129034
0	C	0.473149	0.128443	0.627515
0	C	0.971864	0.616483	0.873128
0	H	0.424666	0.00210643	0.389654
0	H	0.0352082	0.504774	0.112547
0	H	0.528989	0.152286	0.612661
0	H	0.91725	0.643478	0.889833
0	H	0.485478	0.835666	0.346805
0	H	0.975933	0.347004	0.158096
0	H	0.468098	0.318366	0.655509
0	H	0.976086	0.804004	0.84434
0	C	0.542129	0.0163499	0.425456
0	C	0.916783	0.522989	0.0800171
0	C	0.411543	0.137946	0.576795
0	C	0.0358165	0.626036	0.921998
0	C	0.426983	0.281483	0.285135
0	C	0.039194	0.791814	0.216688
0	C	0.526621	0.871925	0.717099
0	C	0.91317	0.360459	0.785119
0	C	0.429039	0.0609644	0.245539
0	C	0.0387145	0.569934	0.256162
0	C	0.525	0.0929667	0.756591
0	C	0.913779	0.583547	0.745973
0	H	0.47503	0.912528	0.251132
0	H	0.992422	0.422917	0.25154
0	H	0.47933	0.242786	0.750902
0	H	0.960169	0.730274	0.750806
0	C	0.371637	0.0242242	0.198944
0	C	0.0980784	0.528134	0.300908
0	C	0.582436	0.12872	0.803209
0	C	0.854419	0.627239	0.701341
0	H	0.373081	0.853367	0.167959
0	H	0.0979071	0.355342	0.331566
0	H	0.581286	0.299781	0.834199
0	H	0.854732	0.800824	0.670932
0	C	0.313107	0.21426	0.19239
0	C	0.156849	0.717186	0.30611
0	C	0.640554	0.936952	0.809845
0	C	0.795483	0.438897	0.695959
0	C	0.311351	0.441726	0.229601
0	C	0.156927	0.947227	0.269449
0	C	0.64179	0.708614	0.772819
0	C	0.79533	0.207366	0.732182
0	H	0.265668	0.590306	0.223271
0	H	0.20277	0.0952308	0.274992
0	H	0.687101	0.558577	0.779256
0	H	0.7494	0.0597273	0.726383
0	C	0.369067	0.475466	0.276087
0	C	0.0973778	0.985127	0.224582
0	C	0.584026	0.675776	0.726346
0	C	0.854938	0.167414	0.776917
0	H	0.367313	0.64836	0.306595
0	H	0.0981266	0.159815	0.194394
0	H	0.585337	0.502076	0.69597
0	H	0.854207	0.991184	0.806701
0	C	0.693227	0.285648	0.360114
0	C	0.770841	0.804403	0.149833
0	C	0.260366	0.867352	0.641977
0	C	0.181648	0.346732	0.851629
0	C	0.757228	0.443558	0.378483
0	C	0.707066	0.965542	0.132782
0	C	0.196476	0.708928	0.623566
0	C	0.245564	0.186588	0.868874
0	H	0.753708	0.629099	0.405173
0	H	0.710539	0.151494	0.106231
0	H	0.200151	0.523414	0.596906
0	H	0.242151	0.000532822	0.895428
0	C	0.827025	0.345289	0.367482
0	C	0.637517	0.870768	0.145024
0	C	0.126593	0.806637	0.63448
0	C	0.315095	0.282732	0.856866
0	H	0.87731	0.46435	0.381972
0	H	0.587433	0.992377	0.131395
0	H	0.076403	0.687145	0.619947
0	H	0.365281	0.162051	0.870698
0	C	0.831044	0.0951089	0.338267
0	C	0.633515	0.620536	0.174255
0	C	0.122352	0.0567902	0.663673
0	C	0.318958	0.533114	0.827655
0	C	0.76783	0.938592	0.31776
0	C	0.696683	0.462712	0.194234
0	C	0.18547	0.213649	0.684283
0	C	0.25566	0.689751	0.807475
0	H	0.77189	0.754423	0.290916
0	H	0.692733	0.279393	0.221348
0	H	0.181263	0.397732	0.7111
0	H	0.259486	0.873189	0.780335
0	C	0.698734	0.0375011	0.329494
0	C	0.765589	0.558523	0.181291
0	C	0.254645	0.115348	0.672607
0	C	0.186786	0.593014	0.820298
0	H	0.648981	0.91337	0.315808
0	H	0.815256	0.432943	0.194321
0	H	0.304319	0.239863	0.686343
0	H	0.137004	0.717657	0.807081
0	Cl	0.239878	0.165436	0.136505
0	Cl	0.232397	0.664014	0.359709
0	Cl	0.713947	0.984499	0.865666
0	Cl	0.719808	0.494419	0.642602
0	Cl	0.917492	0.967615	0.327478
0	Cl	0.546936	0.495057	0.185127
0	Cl	0.0357636	0.183575	0.674262
0	Cl	0.405454	0.659686	0.816872
0	N	0.530729	0.828321	0.471429
0	N	0.925514	0.332594	0.0338447
0	N	0.422997	0.326041	0.530848
0	N	0.027453	0.815945	0.968366
0	H	0.484895	0.695043	0.462686
0	H	0.971246	0.197657	0.0412312
0	H	0.468909	0.458981	0.539581
0	H	0.981686	0.950575	0.961278
0	N	0.558733	0.371654	0.325668
0	N	0.906686	0.887979	0.179706
0	N	0.394887	0.782344	0.676515
0	N	0.0457191	0.264245	0.82167
0	H	0.572788	0.245668	0.292555
0	H	0.894122	0.767827	0.21424
0	H	0.380819	0.90844	0.709581
0	H	0.0580293	0.385814	0.787276
0	O	0.559209	0.626329	0.560435
0	O	0.892878	0.128144	0.945613
0	O	0.394676	0.527818	0.441798
0	O	0.0603272	0.0190767	0.0567285
0	S	0.677278	0.140349	0.48362
0	S	0.779656	0.648439	0.0257673
0	S	0.276412	0.0141476	0.518587
0	S	0.173037	0.50012	0.975821
