#******************************************
#
# CIF file created by Zeo++
# Zeo++ is an open source package to
# analyze microporous materials
#
#*******************************************

_cell_length_a		9.29839(0)
_cell_length_b		12.3514(0)
_cell_length_c		15.9987(0)
_cell_angle_alpha		87.6445(0)
_cell_angle_beta		64.6224(0)
_cell_angle_gamma		80.1167(0)

_symmetry_space_group_name_H-M		'P1'
_symmetry_Int_Tables_number		1
_symmetry_cell_setting		Triclinic

loop_
_symmetry_equiv_pos_as_xyz
'+x,+y,+z'

loop_
_atom_site_label
_atom_site_type_symbol
_atom_site_fract_x
_atom_site_fract_y
_atom_site_fract_z
0	N	0.311245	0.58495	0.401698
0	N	0.645493	0.414548	0.600051
0	O	0.822681	0.358753	0.27117
0	O	0.133906	0.64064	0.730509
0	N	0.339381	0.404325	0.327387
0	N	0.617257	0.595222	0.674358
0	N	0.2912	0.455013	0.98805
0	N	0.665552	0.544316	0.0136612
0	O	0.7956	0.477158	0.382976
0	O	0.161235	0.522231	0.618661
0	C	0.338287	0.421686	0.237533
0	C	0.618332	0.577807	0.764217
0	C	0.275818	0.521781	0.211588
0	C	0.68074	0.477671	0.790141
0	H	0.233264	0.595947	0.255713
0	H	0.723172	0.403503	0.746037
0	C	0.318309	0.429059	0.0677012
0	C	0.638408	0.57033	0.934025
0	C	0.0681205	0.722221	0.470621
0	C	0.888816	0.277435	0.531247
0	H	0.019361	0.668925	0.528655
0	H	0.937678	0.330805	0.473295
0	C	0.733203	0.439064	0.340438
0	C	0.223537	0.560377	0.661238
0	C	0.474157	0.56548	0.380885
0	C	0.482594	0.433996	0.620829
0	C	0.567353	0.464396	0.349784
0	C	0.389329	0.535083	0.651945
0	N	0.926912	0.98527	0.397443
0	N	0.0299433	0.0142553	0.604281
0	C	0.266086	0.526391	0.126645
0	C	0.690514	0.473036	0.875072
0	C	0.977619	0.821814	0.464588
0	C	0.979261	0.177786	0.537235
0	C	0.502114	0.371236	0.327114
0	C	0.454558	0.628276	0.67458
0	H	0.590806	0.331312	0.259102
0	H	0.365843	0.668263	0.742579
0	H	0.488794	0.307699	0.381175
0	H	0.468008	0.691773	0.620479
0	C	0.223689	0.692457	0.399525
0	C	0.733077	0.307052	0.60222
0	C	0.382663	0.328974	0.0935759
0	C	0.574014	0.670431	0.908185
0	H	0.42555	0.255987	0.0481342
0	H	0.531132	0.743402	0.953641
0	C	0.392267	0.32633	0.177817
0	C	0.564371	0.673141	0.823959
0	H	0.441925	0.249333	0.199079
0	H	0.514657	0.750146	0.80274
0	C	0.0446807	0.891639	0.387766
0	C	0.9121	0.107835	0.613941
0	C	0.291812	0.762314	0.325641
0	C	0.664805	0.237027	0.675933
0	H	0.415438	0.737399	0.273413
0	H	0.541004	0.261832	0.728017
0	C	0.815135	0.876093	0.522616
0	C	0.141649	0.123458	0.479116
0	C	0.203093	0.862298	0.319107
0	C	0.753516	0.137013	0.682436
0	H	0.255584	0.916746	0.263114
0	H	0.700971	0.0823959	0.738248
0	C	0.210285	0.614675	0.0795836
0	C	0.746318	0.384683	0.922114
0	C	0.226331	0.567847	0.994312
0	C	0.730322	0.431458	0.00735764
0	C	0.694935	0.848753	0.605887
0	C	0.261689	0.150722	0.39575
0	H	0.716628	0.772106	0.63838
0	H	0.240063	0.227439	0.363328
0	C	0.341293	0.381383	0.906319
0	C	0.615515	0.617901	0.0954056
0	H	0.443572	0.316751	0.902721
0	H	0.512981	0.682403	0.09913
0	H	0.389358	0.430237	0.842691
0	H	0.567713	0.568956	0.158992
0	C	0.785998	0.976395	0.479154
0	C	0.170706	0.0230291	0.522448
0	C	0.994407	0.333672	0.247331
0	C	0.962221	0.665608	0.754273
0	H	0.0490117	0.405622	0.21528
0	H	0.907755	0.59354	0.786106
0	H	0.0368159	0.264114	0.19774
0	H	0.91957	0.735028	0.804035
0	H	0.0145042	0.313194	0.309104
0	H	0.942236	0.686235	0.692478
0	C	0.181088	0.6326	0.932231
0	C	0.7756	0.366607	0.0693924
0	H	0.190162	0.596742	0.868553
0	H	0.766732	0.402386	0.133045
0	C	0.946223	0.0749377	0.331703
0	C	0.0103411	0.924193	0.669673
0	H	0.0725281	0.0912054	0.304716
0	H	0.884006	0.908026	0.696524
0	H	0.865219	0.151822	0.369901
0	H	0.0911823	0.847385	0.631268
0	C	0.547967	0.920065	0.644757
0	C	0.408395	0.0791695	0.356633
0	H	0.452273	0.900235	0.709103
0	H	0.503928	0.0988736	0.292163
0	C	0.636816	0.047549	0.518222
0	C	0.319651	0.95165	0.483147
0	H	0.612507	0.123474	0.485597
0	H	0.343881	0.875615	0.515671
0	C	0.152724	0.727167	0.100073
0	C	0.803628	0.272182	0.90159
0	H	0.142406	0.763208	0.163801
0	H	0.813826	0.23624	0.837871
0	C	0.520112	0.017533	0.60081
0	C	0.436169	0.981552	0.400429
0	H	0.401847	0.0711286	0.632601
0	H	0.554187	0.92773	0.368401
0	C	0.201597	0.330237	0.908843
0	C	0.755132	0.669272	0.0927426
0	H	0.164351	0.270432	0.963257
0	H	0.792508	0.728773	0.0380972
0	H	0.23409	0.289013	0.842008
0	H	0.722535	0.710873	0.159457
0	H	0.093502	0.392415	0.921875
0	H	0.863158	0.607115	0.079933
0	C	0.110889	0.791074	0.0376416
0	C	0.845441	0.20818	0.96399
0	H	0.0668244	0.878714	0.0520118
0	H	0.889313	0.120519	0.949618
0	C	0.124651	0.743839	0.955006
0	C	0.83182	0.255355	0.0466128
0	H	0.0903203	0.796418	0.907833
0	H	0.866192	0.202726	0.0937481
0	C	0.906871	0.0466226	0.252578
0	C	0.0496381	0.951896	0.748975
0	H	0.98619	0.972464	0.212782
0	H	0.96998	0.0257168	0.789203
0	H	0.91962	0.114393	0.204708
0	H	0.0373907	0.883676	0.796397
0	H	0.781799	0.0322749	0.278647
0	H	0.174561	0.966525	0.722997
0	O	0.504141	0.705258	0.473934
0	O	0.452423	0.294202	0.527852
0	O	0.662827	0.684807	0.319349
0	O	0.29398	0.314685	0.682477
0	C	0.234856	0.486128	0.402934
0	C	0.721822	0.513421	0.598806
0	H	0.215442	0.445697	0.470621
0	H	0.741321	0.553827	0.531091
0	H	0.115423	0.513185	0.401172
0	H	0.841269	0.486414	0.600569
0	C	0.767324	0.755264	0.327373
0	C	0.18929	0.244295	0.674589
0	H	0.699956	0.839971	0.345305
0	H	0.256305	0.159443	0.657212
0	H	0.867422	0.747027	0.257995
0	H	0.0887832	0.253095	0.743824
0	H	0.807557	0.725029	0.380645
0	H	0.149721	0.274123	0.620969
0	C	0.542746	0.659004	0.400712
0	C	0.413975	0.340471	0.601047
