#******************************************
#
# CIF file created by Zeo++
# Zeo++ is an open source package to
# analyze microporous materials
#
#*******************************************

_cell_length_a		33.7811(0)
_cell_length_b		12.369(0)
_cell_length_c		5.2906(0)
_cell_angle_alpha		90(0)
_cell_angle_beta		94.6442(0)
_cell_angle_gamma		90(0)

_symmetry_space_group_name_H-M		'P1'
_symmetry_Int_Tables_number		1
_symmetry_cell_setting		Monoclinic

loop_
_symmetry_equiv_pos_as_xyz
'+x,+y,+z'

loop_
_atom_site_label
_atom_site_type_symbol
_atom_site_fract_x
_atom_site_fract_y
_atom_site_fract_z
0	C	0.426126	0.725551	0.703176
0	C	0.548843	0.725787	0.426076
0	C	0.920013	0.22658	0.706824
0	C	0.0549785	0.226604	0.422035
0	C	0.413709	0.616128	0.603286
0	C	0.56125	0.616327	0.525968
0	C	0.907033	0.116667	0.612842
0	C	0.0679536	0.116711	0.516149
0	H	0.411017	0.6172	0.390594
0	H	0.563939	0.617358	0.738433
0	H	0.90405	0.116575	0.400154
0	H	0.0709477	0.116651	0.728725
0	C	0.43717	0.514917	0.699523
0	C	0.537765	0.515166	0.429714
0	C	0.930642	0.0158438	0.70989
0	C	0.0443279	0.0159123	0.419185
0	H	0.450437	0.468854	0.551661
0	H	0.524482	0.469129	0.577534
0	H	0.944084	0.969807	0.562657
0	H	0.0308887	0.969892	0.566441
0	H	0.460807	0.530528	0.849271
0	H	0.514123	0.53082	0.279944
0	H	0.95421	0.0318976	0.859791
0	H	0.020745	0.0319855	0.269321
0	C	0.398645	0.464922	0.794437
0	C	0.576275	0.465096	0.33475
0	C	0.892176	0.965539	0.804895
0	C	0.0827825	0.965558	0.32413
0	C	0.375383	0.571526	0.713029
0	C	0.599567	0.571654	0.416204
0	C	0.86882	0.0722018	0.724385
0	C	0.106153	0.072202	0.40454
0	H	0.368117	0.617047	0.884332
0	H	0.60684	0.617147	0.244905
0	H	0.861726	0.117757	0.896012
0	H	0.113261	0.117726	0.232832
0	C	0.338975	0.564197	0.524129
0	C	0.635979	0.564311	0.605087
0	C	0.832198	0.0644013	0.53704
0	C	0.142768	0.0643755	0.591941
0	H	0.326832	0.480698	0.525568
0	H	0.648144	0.4808	0.603555
0	H	0.820287	0.980611	0.538798
0	H	0.154681	0.980586	0.590089
0	H	0.347221	0.576814	0.327137
0	H	0.62773	0.576904	0.802164
0	H	0.840219	0.0773221	0.339576
0	H	0.134718	0.0772494	0.789333
0	C	0.305336	0.6413	0.581624
0	C	0.669623	0.641388	0.547627
0	C	0.798321	0.140623	0.595454
0	C	0.176632	0.14067	0.533656
0	H	0.276395	0.601833	0.524255
0	H	0.69857	0.601925	0.604981
0	H	0.769494	0.100407	0.538954
0	H	0.205461	0.100442	0.590281
0	H	0.305056	0.650136	0.792211
0	H	0.669898	0.650254	0.337071
0	H	0.798137	0.149451	0.806017
0	H	0.176827	0.149485	0.323095
0	C	0.306281	0.752473	0.455683
0	C	0.668682	0.752559	0.673643
0	C	0.798832	0.25173	0.468748
0	C	0.17612	0.251793	0.660357
0	C	0.342325	0.822945	0.546262
0	C	0.632653	0.823064	0.583152
0	C	0.835049	0.322296	0.555277
0	C	0.139906	0.32237	0.573903
0	H	0.353372	0.797892	0.744044
0	H	0.621605	0.798078	0.385324
0	H	0.846425	0.298114	0.753082
0	H	0.128547	0.298234	0.376045
0	C	0.376495	0.809602	0.372243
0	C	0.598476	0.809739	0.757102
0	C	0.868822	0.307507	0.378831
0	C	0.106117	0.307563	0.750167
0	H	0.37447	0.872254	0.220949
0	H	0.600508	0.872371	0.908454
0	H	0.866306	0.368361	0.223542
0	H	0.108599	0.368445	0.905387
0	H	0.374126	0.731351	0.269689
0	H	0.600823	0.731482	0.859644
0	H	0.866353	0.228112	0.281148
0	H	0.10856	0.228156	0.847801
0	C	0.417333	0.817561	0.520867
0	C	0.557651	0.817791	0.608408
0	C	0.909922	0.317363	0.523069
0	C	0.0650273	0.317424	0.605743
0	H	0.440724	0.819424	0.383564
0	H	0.534248	0.819714	0.745646
0	H	0.932824	0.319409	0.382094
0	H	0.0420987	0.319513	0.7465
0	H	0.419508	0.896746	0.621414
0	H	0.555502	0.896972	0.507868
0	H	0.912031	0.397071	0.621383
0	H	0.0629363	0.397119	0.50725
0	C	0.443576	0.741535	0.935808
0	C	0.531431	0.741812	0.1934
0	C	0.939762	0.244271	0.932194
0	C	0.035268	0.244247	0.196525
0	H	0.450912	0.676929	0.0689986
0	H	0.5241	0.677237	0.0601879
0	H	0.948462	0.180815	0.0653844
0	H	0.026605	0.180761	0.0632665
0	H	0.452134	0.820164	0.0102481
0	H	0.522886	0.820444	0.118949
0	H	0.949198	0.323397	0.99869
0	H	0.0258396	0.323357	0.129852
0	C	0.384227	0.360899	0.664322
0	C	0.59065	0.361027	0.464833
0	C	0.877926	0.861558	0.673794
0	C	0.0970142	0.861586	0.455285
0	H	0.407094	0.298	0.68602
0	H	0.567728	0.298294	0.443639
0	H	0.901051	0.799338	0.692675
0	H	0.0738288	0.799487	0.437065
0	H	0.376189	0.370723	0.459658
0	H	0.598787	0.370937	0.669479
0	H	0.869528	0.871967	0.469763
0	H	0.105526	0.872049	0.659235
0	H	0.357557	0.330356	0.746484
0	H	0.617254	0.330273	0.382335
0	H	0.85153	0.829758	0.756832
0	H	0.123336	0.829555	0.371789
0	C	0.402827	0.44745	0.0800731
0	C	0.57209	0.447647	0.0491373
0	C	0.896371	0.947656	0.0903568
0	C	0.0785724	0.947629	0.0387421
0	H	0.375825	0.413003	0.153055
0	H	0.599064	0.41302	0.976082
0	H	0.8695	0.912291	0.163028
0	H	0.105408	0.91211	0.965987
0	H	0.409574	0.523248	0.183895
0	H	0.565412	0.523495	0.945238
0	H	0.902843	0.0234387	0.194721
0	H	0.0721295	0.0234543	0.934231
0	H	0.427062	0.390864	0.133943
0	H	0.547813	0.391222	0.995158
0	H	0.920802	0.891607	0.14397
0	H	0.0540893	0.89174	0.985145
0	C	0.296421	0.750596	0.172589
0	C	0.678568	0.750631	0.956689
0	C	0.788396	0.249275	0.186168
0	C	0.186547	0.249291	0.942951
0	H	0.263983	0.750947	0.126
0	H	0.711011	0.750919	0.00315876
0	H	0.755905	0.248944	0.142025
0	H	0.219033	0.248999	0.987186
0	H	0.307311	0.676772	0.0803079
0	H	0.667684	0.676834	0.048911
0	H	0.799334	0.175523	0.093592
0	H	0.175599	0.175565	0.0354064
0	H	0.30851	0.820908	0.0779058
0	H	0.666518	0.820972	0.0513335
0	H	0.800088	0.319683	0.0899964
0	H	0.174822	0.319704	0.039215
0	C	0.33065	0.94331	0.55797
0	C	0.644344	0.943427	0.571574
0	C	0.823504	0.44283	0.565239
0	C	0.151418	0.442928	0.564092
0	H	0.322909	0.977762	0.36459
0	H	0.652071	0.977848	0.764995
0	H	0.815491	0.476766	0.371702
0	H	0.159392	0.476889	0.75761
0	C	0.296853	0.958513	0.72198
0	C	0.678135	0.958694	0.407564
0	C	0.789982	0.458846	0.731174
0	C	0.184951	0.458983	0.39823
0	C	0.296314	0.0426829	0.90054
0	C	0.678672	0.0429123	0.229163
0	C	0.789777	0.543763	0.90797
0	C	0.185177	0.543879	0.221438
0	C	0.26316	0.0546468	0.0409664
0	C	0.711812	0.0548362	0.0885127
0	C	0.756739	0.557009	0.0489242
0	C	0.218196	0.557108	0.0802335
0	H	0.262502	0.117409	0.185235
0	H	0.712454	0.117607	0.94421
0	H	0.756272	0.620428	0.191719
0	H	0.218616	0.620503	0.937296
0	C	0.230854	0.984231	0.000358395
0	C	0.744097	0.984346	0.128933
0	C	0.724317	0.486737	0.0117202
0	C	0.250593	0.486794	0.117263
0	C	0.230612	0.896365	0.824912
0	C	0.744343	0.896447	0.304372
0	C	0.723795	0.397891	0.838808
0	C	0.251117	0.397969	0.290254
0	C	0.265308	0.885127	0.692276
0	C	0.709655	0.885249	0.437065
0	C	0.758337	0.385679	0.704958
0	C	0.216597	0.385777	0.42418
0	C	0.196706	0.824437	0.797817
0	C	0.77824	0.82449	0.33107
0	C	0.689833	0.326105	0.815346
0	C	0.285085	0.32619	0.313485
0	C	0.331051	0.117506	0.940115
0	C	0.643948	0.117787	0.18979
0	C	0.824789	0.6178	0.945271
0	C	0.150168	0.617885	0.184173
0	H	0.321284	0.203195	0.960539
0	H	0.653728	0.203503	0.169962
0	H	0.815302	0.703666	0.966583
0	H	0.159675	0.703755	0.163277
0	H	0.347471	0.0995852	0.127763
0	H	0.627539	0.100079	0.00180138
0	H	0.841456	0.599388	0.131856
0	H	0.133533	0.599602	0.997293
0	C	0.358301	0.109551	0.723962
0	C	0.616656	0.109638	0.405666
0	C	0.851652	0.609249	0.727081
0	C	0.12325	0.609238	0.40205
0	H	0.345466	0.150513	0.548451
0	H	0.629431	0.150592	0.581267
0	H	0.838605	0.650128	0.551875
0	H	0.136215	0.650046	0.577203
0	H	0.388467	0.140486	0.778562
0	H	0.586465	0.140542	0.350847
0	H	0.881942	0.639942	0.779381
0	H	0.0929633	0.639867	0.349356
0	O	0.266677	0.799167	0.536428
0	O	0.708269	0.799232	0.592712
0	O	0.759465	0.298631	0.552204
0	O	0.215477	0.298701	0.576874
0	O	0.196621	0.736415	0.643708
0	O	0.778341	0.736466	0.485264
0	O	0.68945	0.237395	0.66317
0	O	0.285531	0.237529	0.465867
0	H	0.222256	0.726354	0.5556
0	H	0.752698	0.72647	0.573326
0	H	0.714933	0.226742	0.573957
0	H	0.260065	0.226887	0.555266
0	O	0.166514	0.836341	0.911935
0	O	0.808391	0.836317	0.216502
0	O	0.659828	0.33879	0.930963
0	O	0.31504	0.338869	0.197465
0	O	0.199745	0.00396417	0.138417
0	O	0.775175	0.00400535	0.990504
0	O	0.693408	0.507417	0.150811
0	O	0.281462	0.507403	0.977797
0	H	0.176712	0.948362	0.102746
0	H	0.798192	0.948329	0.0258614
0	H	0.670335	0.451734	0.118003
0	H	0.304544	0.451684	0.0103563
0	O	0.365942	0.998006	0.664953
0	O	0.60905	0.99806	0.464513
0	O	0.859021	0.497494	0.668662
0	O	0.115889	0.497489	0.4605
