#******************************************
#
# CIF file created by Zeo++
# Zeo++ is an open source package to
# analyze microporous materials
#
#*******************************************

_cell_length_a		13.6481(0)
_cell_length_b		10.6105(0)
_cell_length_c		7.55555(0)
_cell_angle_alpha		90(0)
_cell_angle_beta		90(0)
_cell_angle_gamma		122.478(0)

_symmetry_space_group_name_H-M		'P1'
_symmetry_Int_Tables_number		1
_symmetry_cell_setting		Monoclinic

loop_
_symmetry_equiv_pos_as_xyz
'+x,+y,+z'

loop_
_atom_site_label
_atom_site_type_symbol
_atom_site_fract_x
_atom_site_fract_y
_atom_site_fract_z
0	Cl	0.904386	0.309211	0.62137
0	Cl	0.915771	0.831106	0.0587009
0	Cl	0.318684	0.300251	0.283808
0	C	0.663725	0.205992	0.237436
0	C	0.939813	0.755828	0.54065
0	C	0.459968	0.407101	0.783583
0	C	0.696886	0.994626	0.243426
0	C	0.0428813	0.0396568	0.577381
0	C	0.253074	0.343433	0.76344
0	C	0.610241	0.0415466	0.211692
0	C	0.986738	0.903658	0.455907
0	C	0.379299	0.45601	0.7141
0	C	0.74502	0.282147	0.390005
0	C	0.893766	0.728576	0.72722
0	C	0.447835	0.395208	0.988841
0	C	0.112382	0.68928	0.932301
0	C	0.350029	0.580687	0.321956
0	C	0.497544	0.873499	0.626101
0	C	0.185701	0.665694	0.630214
0	C	0.433024	0.725801	0.0324083
0	C	0.492926	0.988636	0.645329
0	C	0.85582	0.461218	0.0299034
0	C	0.682962	0.686899	0.508687
0	C	0.425346	0.252003	0.713733
0	C	0.763234	0.478712	0.0145816
0	C	0.65498	0.582412	0.387075
0	C	0.482579	0.219372	0.558163
0	C	0.151551	0.681368	0.783052
0	C	0.389037	0.652139	0.174886
0	C	0.484891	0.104955	0.674637
0	C	0.938832	0.530478	0.163164
0	C	0.621344	0.662078	0.682052
0	C	0.462916	0.167859	0.838897
0	C	0.00142239	0.467992	0.246642
0	C	0.691233	0.76485	0.838426
0	C	0.379006	0.0733779	0.985195
0	C	0.929078	0.297819	0.267099
0	C	0.813659	0.895027	0.79742
0	C	0.285605	0.109196	0.0181149
0	C	0.833417	0.236213	0.406148
0	C	0.909868	0.866187	0.820063
0	C	0.324097	0.273279	0.0425052
0	C	0.76766	0.0593767	0.419103
0	C	0.0310057	0.00351191	0.774909
0	C	0.235114	0.306221	0.960976
0	H	0.858425	0.379068	0.943713
0	H	0.752822	0.807148	0.483939
0	H	0.329394	0.186351	0.691551
0	H	0.651252	0.871449	0.250803
0	H	0.135761	0.116789	0.542184
0	H	0.196727	0.384193	0.721855
0	H	0.758137	0.0266978	0.131588
0	H	0.999435	0.103747	0.548933
0	H	0.221723	0.240192	0.683116
0	H	0.535805	0.979783	0.305303
0	H	0.0461879	0.921674	0.345473
0	H	0.407574	0.568942	0.76521
0	H	0.572373	0.00765295	0.0765565
0	H	0.910399	0.90329	0.390193
0	H	0.387748	0.469877	0.568201
0	H	0.691309	0.247482	0.513531
0	H	0.934798	0.678052	0.801455
0	H	0.472173	0.505365	0.0434882
0	H	0.787515	0.405667	0.388953
0	H	0.799369	0.637957	0.723129
0	H	0.512204	0.374341	0.0483895
0	H	0.747722	0.546318	0.10717
0	H	0.586563	0.466111	0.404784
0	H	0.567989	0.317857	0.519474
0	H	0.700267	0.429238	0.905743
0	H	0.698862	0.606089	0.260217
0	H	0.430744	0.17659	0.436451
0	H	0.95775	0.639213	0.217479
0	H	0.546128	0.67466	0.655638
0	H	0.549824	0.249192	0.901365
0	H	0.0336326	0.521146	0.380288
0	H	0.691903	0.69564	0.947838
0	H	0.429062	0.0910282	0.108692
0	H	0.0825812	0.501251	0.172205
0	H	0.641396	0.812004	0.891701
0	H	0.336225	0.952898	0.953156
0	H	0.986723	0.256024	0.30257
0	H	0.834188	0.994068	0.878176
0	H	0.231311	0.0417445	0.132586
0	H	0.891622	0.242671	0.13792
0	H	0.819125	0.938378	0.654944
0	H	0.222172	0.0620262	0.905257
0	H	0.705208	0.023187	0.532424
0	H	0.101096	0.98823	0.825096
0	H	0.23703	0.398444	0.0343099
0	O	0.843124	0.0189993	0.440853
0	O	0.0442507	0.135877	0.859183
0	O	0.120313	0.175049	0.0039009
0	O	0.638606	0.276551	0.137153
0	O	0.935925	0.651866	0.462726
0	O	0.580554	0.509469	0.741857
