#******************************************
#
# CIF file created by Zeo++
# Zeo++ is an open source package to
# analyze microporous materials
#
#*******************************************

_cell_length_a		21.7956(0)
_cell_length_b		12.8369(0)
_cell_length_c		16.3373(0)
_cell_angle_alpha		90(0)
_cell_angle_beta		122.216(0)
_cell_angle_gamma		90(0)

_symmetry_space_group_name_H-M		'P1'
_symmetry_Int_Tables_number		1
_symmetry_cell_setting		Monoclinic

loop_
_symmetry_equiv_pos_as_xyz
'+x,+y,+z'

loop_
_atom_site_label
_atom_site_type_symbol
_atom_site_fract_x
_atom_site_fract_y
_atom_site_fract_z
0	C	0.9096	0.205138	0.0022036
0	C	0.10037	0.2043	0.537845
0	C	0.100735	0.86799	0.0384022
0	C	0.909764	0.867936	0.502705
0	C	0.409472	0.705286	0.00135541
0	C	0.600504	0.704989	0.539013
0	C	0.600744	0.367044	0.0394692
0	C	0.409768	0.36812	0.501944
0	C	0.861748	0.245914	0.909932
0	C	0.148196	0.2456	0.629917
0	C	0.148584	0.827148	0.130647
0	C	0.861988	0.826546	0.410653
0	C	0.361626	0.746321	0.909184
0	C	0.648336	0.74659	0.630967
0	C	0.648677	0.325893	0.131558
0	C	0.361972	0.326522	0.409975
0	H	0.85691	0.330782	0.899779
0	H	0.153138	0.330523	0.639519
0	H	0.153383	0.742261	0.140778
0	H	0.857076	0.741586	0.401151
0	H	0.356931	0.831246	0.899093
0	H	0.653103	0.831589	0.640411
0	H	0.653408	0.240961	0.141518
0	H	0.357279	0.241531	0.400571
0	C	0.819918	0.179776	0.830713
0	C	0.189658	0.179959	0.709639
0	C	0.190461	0.893216	0.209907
0	C	0.820555	0.892078	0.330845
0	C	0.319495	0.680412	0.829836
0	C	0.690111	0.68121	0.710829
0	C	0.690818	0.391696	0.210983
0	C	0.320203	0.391889	0.33011
0	C	0.917785	0.0967725	0.0157409
0	C	0.0918713	0.0959338	0.524989
0	C	0.0925592	0.976353	0.0249035
0	C	0.918211	0.976323	0.515483
0	C	0.417291	0.596823	0.0145699
0	C	0.592409	0.596508	0.526569
0	C	0.592793	0.475505	0.0264047
0	C	0.41778	0.476599	0.514411
0	H	0.956796	0.064853	0.0868164
0	H	0.0528225	0.0635348	0.454136
0	H	0.053562	0.00826677	0.953835
0	H	0.957204	0.00883664	0.586322
0	H	0.456131	0.564704	0.0856048
0	H	0.553544	0.563819	0.455804
0	H	0.553877	0.50767	0.955435
0	H	0.456615	0.50936	0.58518
0	C	0.876192	0.028667	0.939031
0	C	0.133122	0.0282514	0.602224
0	C	0.13417	0.0443893	0.101678
0	C	0.876966	0.0438852	0.438133
0	C	0.375537	0.528953	0.937727
0	C	0.633864	0.529088	0.603963
0	C	0.634521	0.543298	0.103338
0	C	0.376304	0.544025	0.437009
0	C	0.826647	0.0713951	0.846805
0	C	0.182761	0.0714675	0.694158
0	C	0.183735	0.00160585	0.193869
0	C	0.827425	0.000594549	0.346221
0	C	0.326051	0.571986	0.845613
0	C	0.683425	0.572652	0.69575
0	C	0.684125	0.500151	0.195343
0	C	0.326828	0.500447	0.345207
0	C	0.770065	0.222284	0.73162
0	C	0.238908	0.223059	0.808658
0	C	0.240342	0.850616	0.308959
0	C	0.771369	0.848865	0.231856
0	C	0.269334	0.72326	0.730953
0	C	0.739703	0.724564	0.809668
0	C	0.741116	0.348728	0.309765
0	C	0.270699	0.348529	0.231266
0	H	0.745729	0.298011	0.731495
0	H	0.262559	0.299388	0.808787
0	H	0.264401	0.774659	0.309015
0	H	0.747876	0.772411	0.231794
0	H	0.245619	0.799373	0.731367
0	H	0.762541	0.801442	0.809282
0	H	0.764568	0.272455	0.309149
0	H	0.248162	0.271387	0.23165
0	H	0.724909	0.168468	0.685959
0	H	0.284557	0.170136	0.854612
0	H	0.285711	0.904178	0.354468
0	H	0.725604	0.901595	0.185873
0	H	0.223768	0.669933	0.685657
0	H	0.785867	0.672209	0.85507
0	H	0.786871	0.401852	0.354891
0	H	0.224332	0.400604	0.185931
0	H	0.799355	0.235614	0.694695
0	H	0.209192	0.235348	0.84515
0	H	0.211176	0.837725	0.346108
0	H	0.801072	0.836777	0.195318
0	H	0.298108	0.735925	0.69325
0	H	0.710596	0.735801	0.847109
0	H	0.712531	0.336272	0.347747
0	H	0.299785	0.337812	0.193728
0	C	0.883373	0.91367	0.952396
0	C	0.125088	0.913248	0.589469
0	C	0.126975	0.15939	0.0884041
0	C	0.884917	0.158913	0.450785
0	C	0.382265	0.413854	0.950712
0	C	0.6264	0.413958	0.591679
0	C	0.627657	0.658412	0.0905715
0	C	0.383674	0.659164	0.449321
0	H	0.834715	0.872569	0.894766
0	H	0.173591	0.871675	0.646849
0	H	0.175831	0.200448	0.145686
0	H	0.836671	0.200403	0.3928
0	H	0.333809	0.373122	0.892257
0	H	0.674964	0.372937	0.649611
0	H	0.676417	0.699072	0.148541
0	H	0.335383	0.700128	0.390809
0	H	0.892154	0.88886	0.0220841
0	H	0.115529	0.887716	0.519537
0	H	0.11771	0.184245	0.0184709
0	H	0.893696	0.184589	0.520269
0	H	0.38997	0.388855	0.0197519
0	H	0.617502	0.388176	0.522177
0	H	0.619117	0.683577	0.0211141
0	H	0.39178	0.684923	0.518402
0	H	0.929638	0.885028	0.948969
0	H	0.0788096	0.885969	0.593528
0	H	0.0810064	0.188071	0.092506
0	H	0.931611	0.186149	0.447677
0	H	0.428957	0.384842	0.948508
0	H	0.580011	0.386115	0.59519
0	H	0.581408	0.687289	0.0938987
0	H	0.430499	0.687003	0.446839
0	C	0.101905	0.498037	0.107881
0	C	0.908792	0.497561	0.432593
0	C	0.908418	0.575197	0.933089
0	C	0.101483	0.574775	0.608243
0	C	0.602414	0.997595	0.107319
0	C	0.408484	0.998042	0.433507
0	C	0.407807	0.0748274	0.933468
0	C	0.601851	0.0751261	0.60737
0	C	0.0331813	0.425178	0.170832
0	C	0.976867	0.424135	0.368923
0	C	0.976968	0.648026	0.86988
0	C	0.0334019	0.648332	0.671853
0	C	0.533749	0.924814	0.170392
0	C	0.476561	0.924592	0.369855
0	C	0.476339	0.147754	0.870258
0	C	0.533791	0.148586	0.671051
0	H	0.0194646	0.422367	0.226169
0	H	0.990404	0.421111	0.313398
0	H	0.990566	0.65087	0.814422
0	H	0.0198617	0.651452	0.727371
0	H	0.520079	0.92195	0.225755
0	H	0.490113	0.921511	0.314376
0	H	0.489905	0.150758	0.814795
0	H	0.520231	0.151662	0.726517
0	C	0.0696648	0.428613	0.0292317
0	C	0.941177	0.428263	0.511348
0	C	0.940759	0.644595	0.011762
0	C	0.0690851	0.643991	0.529424
0	C	0.569784	0.928537	0.0284122
0	C	0.441051	0.928906	0.512378
0	C	0.440499	0.1438	0.012433
0	C	0.56928	0.144258	0.528503
0	C	0.949213	0.274019	0.0913477
0	C	0.0607628	0.272784	0.448401
0	C	0.061064	0.79908	0.949298
0	C	0.949395	0.799511	0.592186
0	C	0.449487	0.773817	0.0907797
0	C	0.560521	0.773131	0.449281
0	C	0.560749	0.298588	0.950005
0	C	0.44976	0.299916	0.591622
0	H	0.986942	0.22213	0.155876
0	H	0.0231325	0.220721	0.383975
0	H	0.0233495	0.850952	0.884755
0	H	0.986981	0.851629	0.656595
0	H	0.487498	0.721668	0.154958
0	H	0.522517	0.720848	0.385234
0	H	0.522778	0.350759	0.885827
0	H	0.487722	0.352144	0.65575
0	C	0.0173444	0.358784	0.0216927
0	C	0.99325	0.358205	0.518551
0	C	0.993078	0.714371	0.0192068
0	C	0.0169812	0.714041	0.522149
0	C	0.517352	0.858912	0.020824
0	C	0.493234	0.858991	0.51969
0	C	0.492955	0.213404	0.0200298
0	C	0.517098	0.214173	0.521212
0	H	0.990922	0.305975	0.96002
0	H	0.0198948	0.305577	0.580395
0	H	0.0196006	0.767136	0.0809148
0	H	0.990298	0.766555	0.460221
0	H	0.490741	0.806401	0.958939
0	H	0.519962	0.80659	0.581694
0	H	0.519647	0.265822	0.0819866
0	H	0.490346	0.266536	0.459189
0	C	0.0840381	0.49765	0.179377
0	C	0.926237	0.49686	0.360684
0	C	0.92615	0.575571	0.86146
0	C	0.0840102	0.575545	0.680125
0	C	0.584805	0.997005	0.179063
0	C	0.425773	0.997146	0.361449
0	C	0.425304	0.0755572	0.861607
0	C	0.584532	0.0759834	0.679408
0	C	0.999317	0.356085	0.0919008
0	C	0.0107896	0.355073	0.447863
0	C	0.0109477	0.717087	0.948843
0	C	0.999426	0.717263	0.592813
0	C	0.499495	0.856038	0.0912274
0	C	0.510739	0.855712	0.448935
0	C	0.510703	0.216403	0.949526
0	C	0.499588	0.217442	0.591955
0	C	0.0904331	0.429173	0.955775
0	C	0.920934	0.429259	0.585339
0	C	0.920035	0.644071	0.0852619
0	C	0.089296	0.642876	0.455406
0	C	0.590281	0.929093	0.954685
0	C	0.420781	0.929765	0.586345
0	C	0.419978	0.143232	0.0861359
0	C	0.589481	0.143337	0.454468
0	H	0.0712983	0.501351	0.912237
0	H	0.939831	0.501884	0.628237
0	H	0.938328	0.571299	0.127975
0	H	0.0716075	0.569368	0.413766
0	H	0.568107	0.998966	0.908314
0	H	0.44241	0.000236431	0.631985
0	H	0.441282	0.0726357	0.131651
0	H	0.568818	0.0720389	0.409845
0	H	0.0669091	0.363839	0.904963
0	H	0.945102	0.364516	0.636778
0	H	0.944327	0.708662	0.136812
0	H	0.0640193	0.70642	0.402811
0	H	0.569483	0.861076	0.906805
0	H	0.442268	0.86239	0.635009
0	H	0.441599	0.210513	0.134864
0	H	0.567019	0.20981	0.404806
0	H	0.149488	0.425944	0.989587
0	H	0.861925	0.42547	0.552034
0	H	0.861036	0.64869	0.0515219
0	H	0.148224	0.648658	0.488619
0	H	0.649341	0.930707	0.988254
0	H	0.361702	0.93052	0.552926
0	H	0.360907	0.143073	0.0525157
0	H	0.648557	0.144242	0.487841
0	C	0.11849	0.574537	0.260163
0	C	0.891749	0.57367	0.279849
0	C	0.891603	0.498659	0.780714
0	C	0.118413	0.498683	0.760918
0	C	0.619857	0.073386	0.260223
0	C	0.390829	0.0734989	0.280263
0	C	0.390122	0.9993	0.780365
0	C	0.619388	0.999455	0.760451
0	H	0.0890881	0.64913	0.236737
0	H	0.919467	0.649418	0.304407
0	H	0.920542	0.423726	0.804409
0	H	0.0908632	0.422843	0.736165
0	H	0.590499	0.14807	0.237761
0	H	0.419188	0.148913	0.303569
0	H	0.41912	0.924332	0.802892
0	H	0.591571	0.92369	0.736587
0	H	0.174908	0.591553	0.282185
0	H	0.834537	0.587729	0.25545
0	H	0.835001	0.482446	0.758245
0	H	0.175718	0.484888	0.785665
0	H	0.676065	0.0906057	0.281273
0	H	0.334052	0.0888676	0.257502
0	H	0.333775	0.982666	0.759018
0	H	0.676444	0.985044	0.784057
0	H	0.118998	0.548037	0.324354
0	H	0.893537	0.548892	0.216874
0	H	0.891593	0.524624	0.716741
0	H	0.116297	0.52323	0.823703
0	H	0.621074	0.0462625	0.324748
0	H	0.391168	0.0474209	0.216545
0	H	0.389232	0.0261704	0.715998
0	H	0.61819	0.0247532	0.823743
0	C	0.892575	0.314977	0.108444
0	C	0.117329	0.313926	0.431291
0	C	0.117624	0.757883	0.932153
0	C	0.892841	0.758305	0.609284
0	C	0.393191	0.814155	0.108865
0	C	0.616774	0.813378	0.431092
0	C	0.617036	0.258166	0.931936
0	C	0.393487	0.259478	0.60969
0	C	0.869514	0.265887	0.164538
0	C	0.140342	0.2652	0.375012
0	C	0.140597	0.806633	0.875819
0	C	0.869724	0.807072	0.665438
0	C	0.370447	0.764327	0.165022
0	C	0.639576	0.763628	0.374977
0	C	0.639853	0.307925	0.875826
0	C	0.37063	0.309059	0.665819
0	C	0.800071	0.407257	0.0894062
0	C	0.209681	0.406586	0.45046
0	C	0.20989	0.665145	0.950974
0	C	0.800536	0.665538	0.590132
0	C	0.300489	0.905479	0.0904598
0	C	0.709406	0.904884	0.449617
0	C	0.709532	0.166469	0.950124
0	C	0.300885	0.167775	0.591052
0	H	0.757739	0.464881	0.066137
0	H	0.251984	0.464271	0.473862
0	H	0.252105	0.607343	0.974177
0	H	0.758281	0.607785	0.566763
0	H	0.257913	0.962674	0.0673797
0	H	0.751981	0.962082	0.472788
0	H	0.751956	0.109064	0.973042
0	H	0.258343	0.110504	0.567829
0	C	0.897612	0.172957	0.226594
0	C	0.112384	0.172416	0.312713
0	C	0.112525	0.899491	0.813667
0	C	0.89762	0.899928	0.727655
0	C	0.398647	0.671234	0.226875
0	C	0.611591	0.670569	0.312998
0	C	0.611799	0.401162	0.814155
0	C	0.398608	0.402034	0.727913
0	H	0.952149	0.187816	0.291693
0	H	0.0582434	0.187597	0.246986
0	H	0.0578226	0.884804	0.748834
0	H	0.951654	0.884726	0.793571
0	H	0.45254	0.686562	0.293042
0	H	0.558203	0.686187	0.246065
0	H	0.557807	0.386107	0.748081
0	H	0.451737	0.386089	0.795154
0	H	0.901878	0.106191	0.187683
0	H	0.107326	0.10575	0.351041
0	H	0.10863	0.966486	0.852676
0	H	0.902892	0.966448	0.689369
0	H	0.404305	0.605257	0.188424
0	H	0.605019	0.604806	0.350839
0	H	0.606394	0.467148	0.852828
0	H	0.40572	0.46762	0.690404
0	H	0.862699	0.147039	0.253235
0	H	0.147888	0.14623	0.287099
0	H	0.147254	0.924986	0.786606
0	H	0.86196	0.926333	0.75295
0	H	0.362937	0.643902	0.25181
0	H	0.648002	0.642799	0.289333
0	H	0.647468	0.42835	0.789105
0	H	0.361933	0.430145	0.751021
0	O	0.154699	0.568304	0.12277
0	O	0.856231	0.56809	0.418169
0	O	0.855621	0.504982	0.918249
0	O	0.153973	0.504104	0.62265
0	O	0.655345	0.067581	0.122174
0	O	0.355856	0.0683893	0.419123
0	O	0.354889	0.00481738	0.918593
0	O	0.654397	0.00464855	0.621677
0	H	0.150067	0.592689	0.0585137
0	H	0.860928	0.591897	0.482479
0	H	0.860227	0.480574	0.98246
0	H	0.149292	0.480386	0.558355
0	H	0.650376	0.0924243	0.057796
0	H	0.360908	0.0927418	0.483575
0	H	0.35979	0.979993	0.982906
0	H	0.649284	0.980333	0.557203
0	O	0.787411	0.998762	0.776006
0	O	0.221726	0.999174	0.765398
0	O	0.222954	0.0742326	0.264709
0	O	0.788517	0.0727667	0.274831
0	O	0.286785	0.499509	0.774663
0	O	0.722493	0.500623	0.767229
0	O	0.723374	0.57257	0.26637
0	O	0.287731	0.572416	0.273686
0	H	0.742135	0.0290307	0.716257
0	H	0.26723	0.029498	0.824873
0	H	0.268242	0.0439204	0.324499
0	H	0.742932	0.0424969	0.215501
0	H	0.241055	0.529718	0.715394
0	H	0.768479	0.530949	0.826114
0	H	0.769167	0.542296	0.325553
0	H	0.241784	0.542105	0.214883
0	N	0.84946	0.402495	0.0629548
0	N	0.16034	0.401506	0.476977
0	N	0.160655	0.670293	0.977669
0	N	0.849923	0.670634	0.563696
0	N	0.349799	0.901591	0.0638315
0	N	0.660048	0.900943	0.476147
0	N	0.660256	0.170548	0.976804
0	N	0.350269	0.171898	0.564566
0	N	0.810954	0.324917	0.151967
0	N	0.198822	0.324512	0.387653
0	N	0.198981	0.747281	0.888217
0	N	0.811275	0.747707	0.652797
0	N	0.311743	0.822745	0.15281
0	N	0.698256	0.822197	0.387261
0	N	0.698407	0.249247	0.887871
0	N	0.31197	0.250389	0.653454
0	H	0.780793	0.307985	0.18047
0	H	0.229001	0.307747	0.359151
0	H	0.229036	0.763912	0.859497
0	H	0.781025	0.76449	0.681192
0	H	0.281522	0.804892	0.181027
0	H	0.728541	0.804391	0.359126
0	H	0.728621	0.266935	0.859612
0	H	0.281643	0.268088	0.68156
