#******************************************
#
# CIF file created by Zeo++
# Zeo++ is an open source package to
# analyze microporous materials
#
#*******************************************

_cell_length_a		18.6148(0)
_cell_length_b		28.5303(0)
_cell_length_c		14.739(0)
_cell_angle_alpha		90(0)
_cell_angle_beta		90(0)
_cell_angle_gamma		90(0)

_symmetry_space_group_name_H-M		'P1'
_symmetry_Int_Tables_number		1
_symmetry_cell_setting		Monoclinic

loop_
_symmetry_equiv_pos_as_xyz
'+x,+y,+z'

loop_
_atom_site_label
_atom_site_type_symbol
_atom_site_fract_x
_atom_site_fract_y
_atom_site_fract_z
0	Si	0.951183	0.0132269	0.587365
0	Si	0.0288037	0.98385	0.0923586
0	Si	0.448745	0.484849	0.590744
0	Si	0.53028	0.512799	0.0933822
0	Si	0.108181	0.175968	0.475418
0	Si	0.871527	0.822116	0.982884
0	Si	0.604726	0.32253	0.479541
0	Si	0.374018	0.674552	0.9819
0	Si	0.119172	0.26126	0.634138
0	Si	0.858894	0.735588	0.138295
0	Si	0.617922	0.236667	0.636725
0	Si	0.360929	0.761109	0.137404
0	Si	0.341034	0.153744	0.815594
0	Si	0.635945	0.843295	0.317526
0	Si	0.841395	0.343484	0.816349
0	Si	0.137343	0.654172	0.317085
0	Si	0.315129	0.0418698	0.869766
0	Si	0.662537	0.955091	0.371497
0	Si	0.81587	0.455331	0.870416
0	Si	0.164105	0.542456	0.371774
0	Si	0.101733	0.952797	0.639874
0	Si	0.876712	0.043444	0.141804
0	Si	0.601017	0.54417	0.64209
0	Si	0.377804	0.453575	0.142185
0	N	0.0173868	0.954754	0.473795
0	N	0.963365	0.0421258	0.977585
0	N	0.515412	0.542586	0.476904
0	N	0.464466	0.454995	0.977907
0	N	0.16224	0.261632	0.445274
0	N	0.817947	0.736559	0.948605
0	N	0.658405	0.236987	0.446943
0	N	0.320736	0.760205	0.947544
0	N	0.370896	0.104804	0.98552
0	N	0.606488	0.892235	0.487492
0	N	0.871337	0.392294	0.986425
0	N	0.108216	0.605494	0.487419
0	C	0.991107	0.0715903	0.619095
0	C	0.988931	0.925984	0.127435
0	C	0.488283	0.426614	0.624033
0	C	0.490037	0.570635	0.127924
0	C	0.0375221	0.0945163	0.545219
0	C	0.941369	0.903106	0.0546303
0	C	0.534996	0.40368	0.550508
0	C	0.442876	0.593384	0.054586
0	C	0.0564465	0.145472	0.569127
0	C	0.923121	0.85193	0.0776833
0	C	0.554665	0.352898	0.574847
0	C	0.424309	0.644519	0.0775239
0	C	0.13527	0.239076	0.512825
0	C	0.844187	0.758575	0.017285
0	C	0.632451	0.259315	0.515425
0	C	0.346607	0.738091	0.0163282
0	C	0.147538	0.21721	0.722358
0	C	0.829683	0.779116	0.227028
0	C	0.64694	0.280413	0.725152
0	C	0.331567	0.717675	0.226205
0	C	0.228235	0.206678	0.728166
0	C	0.749016	0.789891	0.231528
0	C	0.727676	0.291009	0.729665
0	C	0.250805	0.707194	0.230763
0	C	0.243777	0.170954	0.803745
0	C	0.733134	0.825816	0.30662
0	C	0.744036	0.326293	0.805724
0	C	0.234586	0.671552	0.306229
0	C	0.346297	0.10416	0.903796
0	C	0.630916	0.892914	0.405677
0	C	0.846939	0.393027	0.904606
0	C	0.132431	0.604693	0.405516
0	C	0.232715	0.0458112	0.79585
0	C	0.744572	0.950839	0.296955
0	C	0.733602	0.451272	0.796217
0	C	0.245864	0.546582	0.296697
0	C	0.207086	0.999571	0.753129
0	C	0.770925	0.997018	0.25466
0	C	0.707229	0.497476	0.754075
0	C	0.27232	0.500297	0.25497
0	C	0.137194	0.00660716	0.699372
0	C	0.840504	0.989586	0.200451
0	C	0.637599	0.490152	0.699879
0	C	0.34058	0.50789	0.198251
0	C	0.0266597	0.969655	0.555639
0	C	0.953139	0.027005	0.0591175
0	C	0.525009	0.527771	0.55876
0	C	0.454461	0.469831	0.0596729
0	C	0.890825	0.0212316	0.48667
0	C	0.0881559	0.974116	0.991182
0	C	0.388863	0.4766	0.489713
0	C	0.590359	0.522183	0.992811
0	C	0.891396	0.99071	0.680765
0	C	0.0896454	0.00847289	0.182605
0	C	0.388704	0.50819	0.683219
0	C	0.590705	0.488614	0.184588
0	C	0.0555644	0.180454	0.375393
0	C	0.924245	0.818674	0.882828
0	C	0.550251	0.318213	0.381084
0	C	0.427986	0.678098	0.883005
0	C	0.197458	0.146368	0.459938
0	C	0.78209	0.851669	0.968478
0	C	0.693503	0.352379	0.461579
0	C	0.28469	0.64514	0.965543
0	C	0.0201845	0.272191	0.644195
0	C	0.95778	0.724739	0.149945
0	C	0.519225	0.225156	0.648213
0	C	0.459684	0.772281	0.149222
0	C	0.169053	0.317424	0.652039
0	C	0.808608	0.679416	0.153996
0	C	0.668452	0.180625	0.653066
0	C	0.31053	0.817256	0.152878
0	C	0.379555	0.131978	0.705947
0	C	0.598033	0.865118	0.207603
0	C	0.879276	0.365225	0.706328
0	C	0.0993724	0.632151	0.207346
0	C	0.394325	0.205417	0.854831
0	C	0.582133	0.791786	0.356415
0	C	0.895062	0.291869	0.855072
0	C	0.083444	0.705692	0.355748
0	C	0.2936	0.00899777	0.97575
0	C	0.6849	0.98786	0.477323
0	C	0.794192	0.488176	0.976377
0	C	0.186764	0.510088	0.477956
0	C	0.39202	0.013706	0.808508
0	C	0.585568	0.983498	0.310845
0	C	0.892925	0.483457	0.809414
0	C	0.0871389	0.513752	0.311587
0	C	0.0620644	0.909533	0.720848
0	C	0.914881	0.0865185	0.224329
0	C	0.5626	0.586911	0.725049
0	C	0.415553	0.411363	0.22666
0	C	0.177512	0.924446	0.576831
0	C	0.801512	0.0715415	0.0772108
0	C	0.675822	0.573031	0.578045
0	C	0.303424	0.42441	0.077872
0	C	0.0639725	0.924538	0.423212
0	C	0.916892	0.0722869	0.926661
0	C	0.561668	0.572791	0.425871
0	C	0.418178	0.424826	0.926763
0	C	0.0542838	0.875417	0.425162
0	C	0.925796	0.121474	0.929742
0	C	0.551529	0.62189	0.427971
0	C	0.427949	0.375678	0.929243
0	C	0.0966177	0.847319	0.368258
0	C	0.882644	0.149601	0.873899
0	C	0.593381	0.650187	0.370919
0	C	0.385657	0.347425	0.872639
0	C	0.147408	0.867239	0.310485
0	C	0.831983	0.129659	0.815938
0	C	0.644163	0.630472	0.312838
0	C	0.334919	0.367182	0.81452
0	C	0.155495	0.915939	0.307178
0	C	0.825219	0.0809217	0.810886
0	C	0.652663	0.581808	0.309412
0	C	0.326986	0.415863	0.810502
0	C	0.113921	0.945209	0.362141
0	C	0.867751	0.0516041	0.864599
0	C	0.611587	0.55232	0.364577
0	C	0.368509	0.445339	0.86519
0	C	0.997792	0.852775	0.48517
0	C	0.982554	0.14403	0.989504
0	C	0.495108	0.6442	0.488538
0	C	0.484567	0.353284	0.989446
0	C	0.0299331	0.813365	0.542999
0	C	0.951117	0.183543	0.0476686
0	C	0.527381	0.683221	0.547199
0	C	0.45281	0.314197	0.0483984
0	C	0.935535	0.834965	0.426135
0	C	0.0446072	0.16173	0.929956
0	C	0.432814	0.662339	0.429963
0	C	0.546488	0.335029	0.930318
0	C	0.118356	0.998129	0.353553
0	C	0.865558	0.998762	0.852892
0	C	0.616868	0.499408	0.356337
0	C	0.364075	0.498245	0.855555
0	C	0.194875	0.0160147	0.337065
0	C	0.789704	0.979613	0.836996
0	C	0.693936	0.481945	0.342345
0	C	0.287279	0.516246	0.841729
0	C	0.0639448	0.0145339	0.280226
0	C	0.919698	0.984948	0.777261
0	C	0.564023	0.482345	0.281754
0	C	0.416777	0.514137	0.779841
0	C	0.190832	0.307583	0.439653
0	C	0.78922	0.690701	0.941219
0	C	0.686739	0.190997	0.440199
0	C	0.292006	0.806057	0.940135
0	C	0.146072	0.344836	0.410685
0	C	0.834118	0.653618	0.911742
0	C	0.64145	0.153874	0.411952
0	C	0.336975	0.843242	0.911359
0	C	0.176829	0.387643	0.384724
0	C	0.803549	0.610935	0.884672
0	C	0.671658	0.111032	0.38518
0	C	0.306449	0.885928	0.88416
0	C	0.250814	0.394124	0.389236
0	C	0.729555	0.604374	0.888403
0	C	0.745671	0.104402	0.388021
0	C	0.232414	0.892365	0.887031
0	C	0.295011	0.357915	0.42079
0	C	0.685163	0.64044	0.920116
0	C	0.79044	0.140517	0.418717
0	C	0.187926	0.856183	0.918089
0	C	0.266306	0.314795	0.446879
0	C	0.713685	0.683456	0.947257
0	C	0.762273	0.183653	0.445652
0	C	0.216385	0.81319	0.94539
0	C	0.0652186	0.338647	0.404109
0	C	0.915022	0.659743	0.905961
0	C	0.560566	0.160238	0.407033
0	C	0.417917	0.837252	0.90641
0	C	0.0431531	0.332736	0.310202
0	C	0.93793	0.664528	0.812157
0	C	0.537064	0.165469	0.313556
0	C	0.441768	0.833758	0.812809
0	C	0.0232531	0.376334	0.45584
0	C	0.956406	0.62263	0.959948
0	C	0.519171	0.123136	0.461027
0	C	0.458725	0.873611	0.962959
0	C	0.315478	0.275766	0.479318
0	C	0.664047	0.722216	0.97978
0	C	0.811993	0.222624	0.477011
0	C	0.166754	0.774221	0.976953
0	C	0.350538	0.252051	0.396861
0	C	0.626568	0.744693	0.897721
0	C	0.845672	0.246454	0.393771
0	C	0.131373	0.751169	0.89401
0	C	0.372231	0.294021	0.545944
0	C	0.609234	0.703837	0.0488631
0	C	0.869848	0.204368	0.542128
0	C	0.110171	0.792305	0.0440345
0	C	0.399361	0.144046	0.0339887
0	C	0.578012	0.852901	0.535704
0	C	0.899515	0.353015	0.035004
0	C	0.0798051	0.644796	0.535724
0	C	0.474655	0.15149	0.0363047
0	C	0.502734	0.845468	0.538147
0	C	0.97479	0.345519	0.0377426
0	C	0.00450171	0.652116	0.538494
0	C	0.502315	0.186371	0.0932528
0	C	0.475124	0.810486	0.59492
0	C	0.00219367	0.310688	0.0949952
0	C	0.976929	0.686921	0.595701
0	C	0.457051	0.213105	0.148237
0	C	0.520411	0.783684	0.649725
0	C	0.956706	0.284122	0.150009
0	C	0.0223094	0.713667	0.650524
0	C	0.383055	0.205476	0.146045
0	C	0.594428	0.791252	0.647303
0	C	0.882724	0.291758	0.14731
0	C	0.0963568	0.706262	0.647642
0	C	0.353081	0.171434	0.0890067
0	C	0.624353	0.825323	0.590304
0	C	0.852989	0.325678	0.0897867
0	C	0.126246	0.672359	0.590233
0	C	0.526119	0.122753	0.978812
0	C	0.451173	0.874286	0.48096
0	C	0.0265365	0.374165	0.980464
0	C	0.952893	0.623325	0.481302
0	C	0.576808	0.0941968	0.0396622
0	C	0.400923	0.903001	0.542119
0	C	0.077104	0.402669	0.0415764
0	C	0.902892	0.594407	0.542434
0	C	0.568336	0.154651	0.914008
0	C	0.408394	0.84245	0.416639
0	C	0.0689754	0.342178	0.916055
0	C	0.909779	0.655195	0.417401
0	C	0.272174	0.164407	0.0887535
0	C	0.705301	0.832143	0.589516
0	C	0.772077	0.332655	0.0887989
0	C	0.20721	0.665625	0.588993
0	C	0.232854	0.210975	0.072346
0	C	0.744165	0.78552	0.571953
0	C	0.732893	0.286019	0.0725887
0	C	0.246061	0.71234	0.572337
0	C	0.248371	0.141552	0.178124
0	C	0.72976	0.854533	0.679014
0	C	0.747784	0.355701	0.177776
0	C	0.231895	0.642771	0.677979
0	H	0.142486	0.416061	0.360897
0	H	0.838056	0.582666	0.860635
0	H	0.636865	0.0827096	0.362034
0	H	0.341053	0.914276	0.860691
0	H	0.0875214	0.0738254	0.535523
0	H	0.891005	0.923677	0.04687
0	H	0.584759	0.424605	0.540594
0	H	0.392638	0.572741	0.0463263
0	H	0.258656	0.239536	0.740802
0	H	0.718262	0.757146	0.243935
0	H	0.758335	0.258117	0.741
0	H	0.220285	0.740069	0.242811
0	H	0.226711	0.313035	0.637131
0	H	0.751121	0.684125	0.138277
0	H	0.72593	0.185312	0.637483
0	H	0.253098	0.812517	0.137006
0	H	0.347908	0.226552	0.188948
0	H	0.629607	0.770058	0.689936
0	H	0.847399	0.27079	0.190191
0	H	0.131582	0.727408	0.690327
0	H	0.00896419	0.09353	0.478908
0	H	0.968697	0.904546	0.98747
0	H	0.506408	0.404348	0.484173
0	H	0.470615	0.591967	0.987693
0	H	0.149278	0.345587	0.607546
0	H	0.828577	0.651481	0.109119
0	H	0.648568	0.152556	0.60844
0	H	0.330568	0.845199	0.108077
0	H	0.256696	0.140093	0.0323043
0	H	0.72065	0.856666	0.533335
0	H	0.756863	0.356807	0.0319758
0	H	0.222429	0.641423	0.532252
0	H	0.27459	0.427532	0.367488
0	H	0.705987	0.571021	0.866017
0	H	0.768984	0.0709707	0.365681
0	H	0.20887	0.925687	0.864451
0	H	0.127631	0.230299	0.788985
0	H	0.848656	0.765552	0.293731
0	H	0.627854	0.266967	0.791898
0	H	0.350676	0.731205	0.292876
0	H	0.0506179	0.303327	0.437603
0	H	0.929346	0.695455	0.938114
0	H	0.546657	0.195907	0.439709
0	H	0.432019	0.801064	0.936831
0	H	0.451431	0.196267	0.866383
0	H	0.525069	0.801072	0.367871
0	H	0.952184	0.301127	0.86626
0	H	0.0264276	0.696352	0.367462
0	H	0.559981	0.192908	0.0940669
0	H	0.417458	0.80393	0.595698
0	H	0.0598375	0.30406	0.0960311
0	H	0.919235	0.693368	0.596826
0	H	0.975195	0.879566	0.53307
0	H	0.00523262	0.11718	0.037202
0	H	0.472504	0.617143	0.535843
0	H	0.507473	0.380308	0.036572
0	H	0.999883	0.171018	0.370341
0	H	0.979469	0.829121	0.877495
0	H	0.494911	0.32858	0.377119
0	H	0.482778	0.666678	0.8782
0	H	0.164126	0.329416	0.722658
0	H	0.81275	0.666935	0.224375
0	H	0.664142	0.168348	0.723564
0	H	0.314607	0.829717	0.223279
0	H	0.117253	0.18386	0.709776
0	H	0.860383	0.812445	0.215792
0	H	0.616407	0.31377	0.713741
0	H	0.361979	0.684229	0.215039
0	H	0.850351	0.0486386	0.4975
0	H	0.128282	0.946605	0.00306758
0	H	0.347898	0.449551	0.501012
0	H	0.630768	0.549473	0.00516692
0	H	0.00644474	0.165742	0.581965
0	H	0.973326	0.831788	0.0898727
0	H	0.505069	0.33255	0.589543
0	H	0.474387	0.664642	0.0908041
0	H	0.352983	0.36363	0.424812
0	H	0.627173	0.634711	0.923487
0	H	0.848426	0.134723	0.421372
0	H	0.129903	0.861818	0.920757
0	H	0.373451	0.219256	0.919503
0	H	0.602798	0.777797	0.421077
0	H	0.874515	0.277962	0.919863
0	H	0.104215	0.719827	0.420245
0	H	0.0875705	0.146562	0.633727
0	H	0.892219	0.85033	0.142379
0	H	0.586993	0.352145	0.638481
0	H	0.392582	0.646025	0.141589
0	H	0.479248	0.240269	0.191906
0	H	0.498241	0.756506	0.693372
0	H	0.978744	0.257105	0.194149
0	H	0.000146697	0.740644	0.694644
0	H	0.94463	0.0946968	0.636224
0	H	0.0353051	0.902738	0.144192
0	H	0.441907	0.40348	0.641308
0	H	0.536128	0.594	0.145214
0	H	0.862875	0.988409	0.469379
0	H	0.116437	0.0065089	0.971864
0	H	0.361573	0.509512	0.471367
0	H	0.618347	0.489618	0.973856
0	H	0.19035	0.13497	0.178676
0	H	0.787768	0.861156	0.678965
0	H	0.689797	0.362385	0.177651
0	H	0.289945	0.636316	0.67769
0	H	0.922768	0.0308551	0.426425
0	H	0.0556558	0.963847	0.931855
0	H	0.421004	0.466362	0.430047
0	H	0.55842	0.532606	0.933111
0	H	0.412203	0.316464	0.512219
0	H	0.569305	0.68056	0.0172762
0	H	0.909392	0.18206	0.507382
0	H	0.070276	0.814996	0.0109073
0	H	0.988895	0.239511	0.637864
0	H	0.988495	0.757779	0.148716
0	H	0.48712	0.257435	0.640461
0	H	0.491061	0.739536	0.145271
0	H	0.392436	0.233932	0.804686
0	H	0.583878	0.763318	0.306154
0	H	0.893121	0.263367	0.804904
0	H	0.0849699	0.734053	0.305243
0	H	0.0217578	0.0687209	0.683627
0	H	0.959133	0.929372	0.192641
0	H	0.518738	0.429739	0.688713
0	H	0.459726	0.567236	0.192973
0	H	0.100463	0.0143725	0.419297
0	H	0.885234	0.981749	0.917065
0	H	0.597998	0.483165	0.421672
0	H	0.38369	0.514851	0.920178
0	H	0.0895499	0.80941	0.369427
0	H	0.888893	0.187555	0.876027
0	H	0.585976	0.688064	0.372174
0	H	0.392638	0.309517	0.874223
0	H	0.0473815	0.783366	0.502092
0	H	0.934268	0.213778	0.00701067
0	H	0.544092	0.713641	0.506983
0	H	0.435791	0.283814	0.00828425
0	H	0.433245	0.116791	0.716287
0	H	0.544175	0.880138	0.217467
0	H	0.932895	0.380603	0.716214
0	H	0.0456582	0.616954	0.217463
0	H	0.282922	0.248618	0.515956
0	H	0.696442	0.750153	0.0143666
0	H	0.780019	0.249728	0.514603
0	H	0.198953	0.746663	0.0129555
0	H	0.380936	0.976466	0.795446
0	H	0.596924	0.0206667	0.297388
0	H	0.881833	0.520663	0.796014
0	H	0.0984357	0.47647	0.299206
0	H	0.189137	0.0606884	0.839226
0	H	0.788048	0.935441	0.339779
0	H	0.690183	0.435926	0.839245
0	H	0.289469	0.562255	0.338926
0	H	0.194373	0.931153	0.260458
0	H	0.786659	0.0656691	0.763784
0	H	0.691521	0.566749	0.262484
0	H	0.288239	0.430985	0.763497
0	H	0.0783909	0.19233	0.312289
0	H	0.90194	0.806245	0.819829
0	H	0.571529	0.305488	0.317753
0	H	0.407	0.69155	0.820092
0	H	0.260361	0.16363	0.237024
0	H	0.718245	0.832148	0.73763
0	H	0.75933	0.333685	0.236905
0	H	0.220265	0.664795	0.737069
0	H	0.228815	0.164906	0.407884
0	H	0.751054	0.833754	0.915312
0	H	0.724159	0.333873	0.408823
0	H	0.254366	0.663193	0.911887
0	H	0.210461	0.139052	0.79289
0	H	0.76667	0.857627	0.2958
0	H	0.710539	0.358228	0.796197
0	H	0.268042	0.639651	0.295976
0	H	0.228468	0.145864	0.523177
0	H	0.750904	0.851208	0.0315799
0	H	0.725481	0.353101	0.524024
0	H	0.25276	0.645548	0.0280341
0	H	0.531363	0.177027	0.874611
0	H	0.445002	0.819944	0.376984
0	H	0.0321057	0.319997	0.876103
0	H	0.946176	0.677791	0.377618
0	H	0.198664	0.972554	0.807085
0	H	0.780013	0.023801	0.308883
0	H	0.698118	0.524172	0.808475
0	H	0.283142	0.4741	0.309786
0	H	0.0317215	0.41135	0.426945
0	H	0.948104	0.587305	0.932433
0	H	0.526889	0.0878568	0.433045
0	H	0.450802	0.90928	0.936986
0	H	0.441474	0.0160202	0.849137
0	H	0.536362	0.981447	0.352
0	H	0.94224	0.481271	0.850337
0	H	0.0377895	0.516135	0.352382
0	H	0.61232	0.0719003	0.999029
0	H	0.365307	0.925329	0.501688
0	H	0.112699	0.424991	0.00111057
0	H	0.867455	0.571985	0.501954
0	H	0.249692	0.985539	0.707918
0	H	0.728434	0.0115403	0.20985
0	H	0.749714	0.512031	0.709306
0	H	0.229291	0.484969	0.21203
0	H	0.84604	0.0165472	0.680209
0	H	0.13654	0.983857	0.180716
0	H	0.342833	0.482755	0.682693
0	H	0.637121	0.513625	0.183502
0	H	0.241669	0.0720173	0.740986
0	H	0.734873	0.924935	0.241756
0	H	0.743053	0.425359	0.740956
0	H	0.235746	0.57221	0.241124
0	H	0.180377	0.845013	0.267415
0	H	0.798191	0.15189	0.773902
0	H	0.676821	0.652862	0.26969
0	H	0.301937	0.344822	0.771715
0	H	0.281676	0.971807	0.963953
0	H	0.697243	0.0249845	0.465376
0	H	0.78154	0.525264	0.964541
0	H	0.200262	0.473101	0.46641
0	H	0.102461	0.897563	0.770171
0	H	0.872194	0.101447	0.267168
0	H	0.605603	0.603168	0.765524
0	H	0.372076	0.392771	0.262292
0	H	0.247545	0.192969	0.661875
0	H	0.730382	0.803533	0.164881
0	H	0.746155	0.305131	0.663322
0	H	0.2321	0.693421	0.164253
0	H	0.384942	0.161273	0.657771
0	H	0.593159	0.835858	0.159261
0	H	0.884711	0.335878	0.658276
0	H	0.0941381	0.661331	0.15888
0	H	0.195846	0.0544901	0.337583
0	H	0.790827	0.941201	0.832726
0	H	0.695558	0.443468	0.343944
0	H	0.286477	0.554744	0.841443
0	H	0.0647562	0.0820508	0.847028
0	H	0.915453	0.914226	0.346843
0	H	0.566519	0.415311	0.848702
0	H	0.414872	0.584843	0.341556
0	H	0.383789	0.222307	0.417429
0	H	0.592847	0.774195	0.918401
0	H	0.879569	0.27602	0.413639
0	H	0.0975581	0.721587	0.914006
0	H	0.339441	0.0112611	0.0230603
0	H	0.639182	0.985866	0.524861
0	H	0.840264	0.486299	0.0233895
0	H	0.140736	0.511612	0.525078
0	H	0.309274	0.239099	0.349932
0	H	0.666392	0.757709	0.848938
0	H	0.803617	0.259731	0.348302
0	H	0.17245	0.738084	0.84696
0	H	0.611169	0.116689	0.0813898
0	H	0.366622	0.880617	0.584129
0	H	0.111382	0.38012	0.0832911
0	H	0.868449	0.616677	0.584495
0	H	0.231623	0.00354907	0.389792
0	H	0.753701	0.989415	0.892586
0	H	0.729596	0.494991	0.395758
0	H	0.251804	0.504232	0.896222
0	H	0.914473	0.934629	0.312585
0	H	0.0668469	0.0597147	0.817788
0	H	0.418527	0.565926	0.304441
0	H	0.567463	0.437002	0.817561
0	H	0.189693	0.110008	0.437296
0	H	0.78964	0.888344	0.94779
0	H	0.685046	0.388686	0.438895
0	H	0.292412	0.60848	0.944763
0	H	0.347837	0.314717	0.600431
0	H	0.635417	0.683978	0.103215
0	H	0.846329	0.183566	0.597085
0	H	0.134781	0.812669	0.0988544
0	H	0.216245	0.00466072	0.271387
0	H	0.765993	0.992553	0.773771
0	H	0.716229	0.492992	0.276983
0	H	0.264168	0.504609	0.777215
0	H	0.0510564	0.0520284	0.292645
0	H	0.936501	0.94788	0.787999
0	H	0.552254	0.4447	0.294017
0	H	0.430688	0.551565	0.791539
0	H	0.222122	0.915975	0.622802
0	H	0.755834	0.0793283	0.121934
0	H	0.720961	0.581398	0.623247
0	H	0.25777	0.41655	0.122587
0	H	0.00147467	0.296216	0.590872
0	H	0.977897	0.702674	0.0943254
0	H	0.500804	0.200248	0.596259
0	H	0.479138	0.795565	0.0950991
0	H	0.00660399	0.288076	0.710044
0	H	0.970397	0.706778	0.214067
0	H	0.506321	0.210005	0.714912
0	H	0.472248	0.78909	0.214521
0	H	0.0160857	0.923881	0.75939
0	H	0.955431	0.0707939	0.269568
0	H	0.52412	0.570712	0.772497
0	H	0.449095	0.428695	0.278258
0	H	0.495111	0.0972153	0.936264
0	H	0.48212	0.899701	0.438058
0	H	0.995766	0.399704	0.937653
0	H	0.983825	0.598045	0.43808
0	H	0.0128276	0.995328	0.29223
0	H	0.969234	0.00602298	0.78812
0	H	0.512189	0.500898	0.292635
0	H	0.467815	0.494543	0.789926
0	H	0.345549	0.10524	0.673625
0	H	0.63206	0.891986	0.175723
0	H	0.844941	0.391792	0.67403
0	H	0.133532	0.60536	0.17545
0	H	0.226045	0.185201	0.870538
0	H	0.750408	0.81169	0.373711
0	H	0.727056	0.311657	0.872522
0	H	0.251739	0.685874	0.373222
0	H	0.91359	0.864221	0.385129
0	H	0.0658285	0.132613	0.888099
0	H	0.411743	0.633524	0.387111
0	H	0.56817	0.363876	0.888187
0	H	0.0767654	0.82569	0.581299
0	H	0.904083	0.17155	0.0859277
0	H	0.574743	0.670788	0.584291
0	H	0.40584	0.326525	0.0863638
0	H	0.867511	0.957081	0.656973
0	H	0.110745	0.0424425	0.156449
0	H	0.365538	0.541903	0.658752
0	H	0.612781	0.454827	0.158841
0	H	0.600301	0.134148	0.865937
0	H	0.37628	0.863004	0.368801
0	H	0.101491	0.362611	0.868464
0	H	0.877575	0.634642	0.369665
0	H	0.990414	0.800152	0.591798
0	H	0.990888	0.196326	0.0965883
0	H	0.488238	0.695765	0.597107
0	H	0.492409	0.301559	0.0976592
0	H	0.965341	0.369388	0.455595
0	H	0.0143333	0.629515	0.96032
0	H	0.461332	0.130287	0.462137
0	H	0.516617	0.866661	0.96416
0	H	0.402101	0.265064	0.577299
0	H	0.579171	0.732693	0.0801745
0	H	0.899936	0.233367	0.572906
0	H	0.0803884	0.763224	0.0748458
0	H	0.145072	0.0341152	0.646463
0	H	0.83199	0.962344	0.147175
0	H	0.646118	0.463087	0.646301
0	H	0.330006	0.533952	0.14337
0	H	0.402252	0.0306718	0.742804
0	H	0.574722	0.96645	0.245378
0	H	0.903424	0.466378	0.74389
0	H	0.0766053	0.530344	0.245597
0	H	0.0947251	0.0210814	0.745715
0	H	0.882854	0.974517	0.246278
0	H	0.595394	0.474883	0.745715
0	H	0.383132	0.524554	0.241603
0	H	0.546257	0.0714556	0.0855231
0	H	0.431813	0.925705	0.587684
0	H	0.0464463	0.42537	0.0874005
0	H	0.933981	0.571772	0.587915
0	H	0.60532	0.177896	0.950244
0	H	0.371463	0.81933	0.453257
0	H	0.105481	0.318777	0.952684
0	H	0.87289	0.678186	0.454409
0	H	0.0422582	0.878439	0.684269
0	H	0.941263	0.11577	0.188702
0	H	0.533741	0.615241	0.689693
0	H	0.449334	0.384764	0.193295
0	H	0.992079	0.345121	0.285061
0	H	0.989207	0.651882	0.788225
0	H	0.485303	0.153402	0.290227
0	H	0.493513	0.846359	0.790495
0	H	0.160483	0.891518	0.544173
0	H	0.818346	0.104804	0.0456857
0	H	0.65814	0.606074	0.546371
0	H	0.321139	0.39107	0.0474238
0	H	0.198284	0.947369	0.5228
0	H	0.782268	0.0487093	0.0221218
0	H	0.696037	0.550437	0.523162
0	H	0.28388	0.446648	0.0220477
0	H	0.384937	0.276496	0.359323
0	H	0.592075	0.719487	0.862244
0	H	0.879067	0.222006	0.354872
0	H	0.09749	0.776037	0.856796
0	H	0.952806	0.807612	0.378915
0	H	0.0273082	0.189484	0.883645
0	H	0.449798	0.690564	0.384537
0	H	0.52887	0.307205	0.884352
0	H	0.239415	0.235282	0.12932
0	H	0.737803	0.760986	0.628584
0	H	0.739249	0.26189	0.129885
0	H	0.239731	0.736538	0.629526
0	H	0.246946	0.0245276	0.0105873
0	H	0.731485	0.972106	0.511918
0	H	0.747953	0.472317	0.0115514
0	H	0.232699	0.526476	0.512877
0	H	0.891903	0.82082	0.467533
0	H	0.0887229	0.175431	0.971137
0	H	0.388634	0.675452	0.471725
0	H	0.590344	0.321201	0.971787
0	H	0.0784399	0.315888	0.261898
0	H	0.903083	0.680811	0.762633
0	H	0.571911	0.181488	0.263692
0	H	0.407219	0.818489	0.761737
0	H	0.275466	0.107849	0.188321
0	H	0.702707	0.888163	0.690242
0	H	0.774925	0.389387	0.188052
0	H	0.205112	0.608987	0.688489
0	H	0.0409016	0.377947	0.526924
0	H	0.938059	0.621849	0.0308114
0	H	0.538012	0.12204	0.531665
0	H	0.43949	0.873528	0.0334692
0	H	0.175082	0.205244	0.0634654
0	H	0.801905	0.791083	0.56251
0	H	0.675148	0.291696	0.0632462
0	H	0.303812	0.706805	0.562771
0	H	0.25313	0.228646	0.0114964
0	H	0.723371	0.768164	0.511046
0	H	0.753408	0.268179	0.0120545
0	H	0.225289	0.730023	0.511771
