#******************************************
#
# CIF file created by Zeo++
# Zeo++ is an open source package to
# analyze microporous materials
#
#*******************************************

_cell_length_a		24.8466(0)
_cell_length_b		24.6171(0)
_cell_length_c		11.4475(0)
_cell_angle_alpha		90(0)
_cell_angle_beta		90(0)
_cell_angle_gamma		119.634(0)

_symmetry_space_group_name_H-M		'P1'
_symmetry_Int_Tables_number		1
_symmetry_cell_setting		Monoclinic

loop_
_symmetry_equiv_pos_as_xyz
'+x,+y,+z'

loop_
_atom_site_label
_atom_site_type_symbol
_atom_site_fract_x
_atom_site_fract_y
_atom_site_fract_z
0	N	0.247071	0.863284	0.2026
0	N	0.142402	0.400967	0.202436
0	N	0.599948	0.755982	0.206576
0	N	0.749681	0.146543	0.799731
0	N	0.854311	0.608856	0.799567
0	N	0.396764	0.253903	0.796236
0	N	0.921694	0.19086	0.536096
0	N	0.809132	0.737605	0.536399
0	N	0.270661	0.0845401	0.537891
0	N	0.412504	0.482601	0.131451
0	N	0.518819	0.942231	0.134219
0	N	0.0600994	0.590538	0.128775
0	N	0.584355	0.527266	0.870793
0	N	0.477975	0.0675536	0.867885
0	N	0.936624	0.41922	0.87347
0	N	0.0752076	0.819084	0.466634
0	N	0.187668	0.272262	0.465832
0	N	0.726138	0.925547	0.466419
0	C	0.308144	0.89503	0.166794
0	C	0.110358	0.430749	0.16697
0	C	0.57132	0.695013	0.170695
0	C	0.688679	0.114804	0.835255
0	C	0.886401	0.578982	0.835529
0	C	0.425584	0.315121	0.831791
0	C	0.983142	0.222976	0.500695
0	C	0.776964	0.767361	0.500462
0	C	0.239543	0.0223009	0.503487
0	C	0.351092	0.450591	0.167357
0	C	0.551192	0.913228	0.168993
0	C	0.0887467	0.652156	0.163689
0	C	0.645689	0.559247	0.834859
0	C	0.44554	0.0965538	0.833354
0	C	0.908037	0.3577	0.838553
0	C	0.0136786	0.786859	0.501425
0	C	0.219878	0.242419	0.501849
0	C	0.757178	0.988187	0.500413
0	N	0.359594	0.91014	0.23691
0	N	0.0956738	0.467722	0.237331
0	N	0.534965	0.641964	0.237491
0	N	0.637285	0.0997894	0.765259
0	N	0.901346	0.542142	0.76499
0	N	0.461921	0.367868	0.76454
0	N	0.0307268	0.237331	0.571627
0	N	0.762248	0.804132	0.571483
0	N	0.198392	0.976569	0.571078
0	N	0.300051	0.435882	0.0966737
0	N	0.564343	0.876456	0.094956
0	N	0.124861	0.704875	0.0961754
0	N	0.696747	0.573969	0.905505
0	N	0.432537	0.133383	0.907345
0	N	0.871944	0.304935	0.905957
0	N	0.966263	0.772736	0.430468
0	N	0.234547	0.205684	0.430722
0	N	0.798293	0.0333399	0.430038
0	H	0.349296	0.908734	0.322816
0	H	0.0973636	0.459137	0.323136
0	H	0.542518	0.65127	0.324049
0	H	0.647547	0.101165	0.679394
0	H	0.899539	0.55075	0.679116
0	H	0.454267	0.358466	0.678124
0	H	0.0202008	0.235564	0.656782
0	H	0.764312	0.795733	0.657325
0	H	0.205515	0.987458	0.656263
0	H	0.310288	0.437806	0.0108101
0	H	0.562024	0.886073	0.0104747
0	H	0.117243	0.695275	0.00994203
0	H	0.686494	0.572028	0.991349
0	H	0.434821	0.123803	0.991809
0	H	0.879568	0.314546	0.992225
0	H	0.976614	0.774342	0.345321
0	H	0.23247	0.214092	0.34488
0	H	0.788585	0.0211146	0.345088
0	H	0.389657	0.89543	0.214287
0	H	0.109596	0.512721	0.214223
0	H	0.490436	0.611928	0.214145
0	H	0.607023	0.114339	0.787854
0	H	0.88708	0.497236	0.788075
0	H	0.506488	0.398127	0.78799
0	H	0.0600887	0.22209	0.549807
0	H	0.776609	0.849248	0.548256
0	H	0.153852	0.949395	0.547773
0	H	0.269879	0.450638	0.119988
0	H	0.550132	0.831161	0.116714
0	H	0.169561	0.735049	0.119474
0	H	0.726885	0.559166	0.882237
0	H	0.446569	0.178697	0.885518
0	H	0.827256	0.274814	0.882715
0	H	0.936497	0.787611	0.452401
0	H	0.220178	0.160578	0.453989
0	H	0.842645	0.0534195	0.447453
0	N	0.331405	0.943843	0.077782
0	N	0.0610154	0.405849	0.0802525
0	N	0.598289	0.676833	0.0812619
0	N	0.665355	0.0660617	0.924334
0	N	0.935948	0.604366	0.922098
0	N	0.398875	0.33357	0.92084
0	N	0.00705945	0.272818	0.413495
0	N	0.726835	0.74297	0.411206
0	N	0.265261	0.00228265	0.418105
0	N	0.327092	0.400835	0.255271
0	N	0.597837	0.936984	0.254545
0	N	0.0618601	0.669342	0.252624
0	N	0.669697	0.608969	0.746908
0	N	0.398959	0.0729572	0.74766
0	N	0.935056	0.340875	0.74978
0	N	0.989406	0.736951	0.588517
0	N	0.270314	0.266837	0.591375
0	N	0.731953	0.0107907	0.584944
0	C	0.306459	0.981039	0.107413
0	C	0.0259202	0.342732	0.106601
0	C	0.659319	0.697802	0.108378
0	C	0.690376	0.0288024	0.894942
0	C	0.970834	0.666999	0.895224
0	C	0.337613	0.312128	0.894298
0	C	0.978974	0.307612	0.4402
0	C	0.693649	0.679985	0.439828
0	C	0.328541	0.0253333	0.442609
0	C	0.354715	0.365785	0.227769
0	C	0.635648	0.99938	0.23202
0	C	0.999961	0.64802	0.226156
0	C	0.642077	0.644053	0.774387
0	C	0.361233	0.0104638	0.770109
0	C	0.996816	0.36176	0.776048
0	C	0.0178193	0.702216	0.562167
0	C	0.303112	0.329841	0.562363
0	C	0.66874	0.985291	0.559911
0	Cl	0.371978	0.047161	0.17603
0	Cl	0.957169	0.331235	0.172594
0	Cl	0.66791	0.632551	0.174121
0	Cl	0.624774	0.962547	0.826318
0	Cl	0.0394922	0.678371	0.829159
0	Cl	0.328507	0.37705	0.828504
0	Cl	0.0372483	0.381601	0.50718
0	Cl	0.619907	0.668045	0.507611
0	Cl	0.335357	0.963196	0.514836
0	Cl	0.292995	0.291724	0.160605
0	Cl	0.707891	0.0125223	0.161939
0	Cl	0.991529	0.713547	0.160191
0	Cl	0.703791	0.718064	0.841592
0	Cl	0.2888	0.997182	0.83997
0	Cl	0.0051868	0.296257	0.842073
0	Cl	0.959638	0.628114	0.495322
0	Cl	0.376925	0.341818	0.494519
0	Cl	0.660767	0.0465843	0.486541
0	C	0.245363	0.958338	0.134344
0	C	0.0495292	0.3047	0.133656
0	C	0.6968	0.758701	0.135239
0	C	0.751432	0.0514345	0.868055
0	C	0.947166	0.70501	0.868256
0	C	0.300078	0.251313	0.867327
0	C	0.918166	0.284483	0.467247
0	C	0.716544	0.641344	0.467596
0	C	0.366706	0.0855766	0.467962
0	C	0.415432	0.388706	0.200369
0	C	0.613012	0.0364044	0.2012
0	C	0.966762	0.58795	0.199249
0	C	0.581341	0.62108	0.801844
0	C	0.383756	0.973397	0.800939
0	C	0.029993	0.42187	0.802998
0	C	0.0786019	0.725248	0.535055
0	C	0.280268	0.368477	0.534614
0	C	0.630751	0.924853	0.534396
0	H	0.221609	0.982923	0.110992
0	H	0.0251783	0.256183	0.111681
0	H	0.744266	0.781699	0.11011
0	H	0.775207	0.026841	0.890834
0	H	0.971525	0.753458	0.89129
0	H	0.252465	0.228205	0.891496
0	H	0.894581	0.309571	0.44467
0	H	0.691837	0.592714	0.445167
0	H	0.414285	0.108117	0.445484
0	H	0.438897	0.363582	0.223213
0	H	0.641287	0.0841561	0.220068
0	H	0.918993	0.564536	0.223766
0	H	0.557902	0.646228	0.778987
0	H	0.355498	0.92562	0.782454
0	H	0.0777293	0.445227	0.778346
0	H	0.102253	0.700175	0.55705
0	H	0.304934	0.417104	0.557142
0	H	0.583103	0.902406	0.557352
0	C	0.212088	0.891689	0.167867
0	C	0.115636	0.337935	0.168121
0	C	0.662701	0.791193	0.170616
0	C	0.784767	0.118169	0.834335
0	C	0.881207	0.671803	0.834198
0	C	0.33421	0.218658	0.831819
0	C	0.885681	0.21768	0.501326
0	C	0.782721	0.674699	0.501854
0	C	0.332549	0.118729	0.503696
0	C	0.448175	0.45551	0.16595
0	C	0.548988	0.00550466	0.168316
0	C	0.997412	0.55543	0.164317
0	C	0.548611	0.55436	0.836189
0	C	0.447825	0.00430714	0.833953
0	C	0.999444	0.454398	0.83785
0	C	0.111178	0.792163	0.50077
0	C	0.214039	0.335081	0.500367
0	C	0.664403	0.891278	0.500135
0	N	0.150504	0.857716	0.190808
0	N	0.149605	0.30983	0.190837
0	N	0.689991	0.853074	0.191182
0	N	0.846301	0.152155	0.811592
0	N	0.847215	0.699974	0.811284
0	N	0.306824	0.156758	0.811205
0	N	0.824376	0.184032	0.524627
0	N	0.816487	0.646359	0.524244
0	N	0.360536	0.180582	0.524158
0	N	0.509717	0.489234	0.143884
0	N	0.514132	0.0305429	0.14218
0	N	0.97359	0.493656	0.143918
0	N	0.487092	0.520594	0.858315
0	N	0.482664	0.979265	0.86002
0	N	0.0232065	0.516154	0.858318
0	N	0.172502	0.825837	0.47771
0	N	0.180295	0.363472	0.477855
0	N	0.636266	0.829402	0.478063
0	H	0.13221	0.813641	0.222107
0	H	0.19297	0.335168	0.222581
0	H	0.664635	0.871613	0.222441
0	H	0.864527	0.196125	0.779999
0	H	0.803747	0.674671	0.779649
0	H	0.332145	0.138301	0.779689
0	H	0.806043	0.139983	0.555724
0	H	0.859682	0.671662	0.555983
0	H	0.335359	0.199087	0.55678
0	H	0.527581	0.532816	0.112271
0	H	0.471592	0.00412005	0.110321
0	H	0.998803	0.475032	0.111964
0	H	0.469221	0.477011	0.889961
0	H	0.52519	0.00571232	0.891838
0	H	0.997979	0.534766	0.890246
0	H	0.190729	0.869705	0.446268
0	H	0.137062	0.338151	0.446314
0	H	0.661408	0.810779	0.445496
0	C	0.107779	0.880629	0.165331
0	C	0.126829	0.244054	0.165395
0	C	0.755209	0.895352	0.165377
0	C	0.889004	0.129179	0.836894
0	C	0.869936	0.765743	0.836801
0	C	0.241623	0.114524	0.836838
0	C	0.781886	0.207299	0.497619
0	C	0.793798	0.58075	0.497584
0	C	0.425811	0.222718	0.497673
0	C	0.551948	0.465938	0.170567
0	C	0.539313	0.0960853	0.170245
0	C	0.908602	0.451122	0.170529
0	C	0.444856	0.543891	0.831635
0	C	0.457467	0.913712	0.83195
0	C	0.0881825	0.558691	0.831678
0	C	0.214943	0.802514	0.50461
0	C	0.202975	0.429063	0.504617
0	C	0.571054	0.7872	0.504495
0	H	0.121221	0.924717	0.21473
0	H	0.0831552	0.213952	0.214746
0	H	0.785066	0.881072	0.214764
0	H	0.875544	0.0851234	0.787443
0	H	0.913627	0.795881	0.787436
0	H	0.211744	0.128757	0.787423
0	H	0.795498	0.25148	0.547369
0	H	0.750176	0.550491	0.547384
0	H	0.455444	0.208132	0.547449
0	H	0.538451	0.421828	0.120783
0	H	0.583441	0.124128	0.120969
0	H	0.878329	0.464988	0.120728
0	H	0.458319	0.587985	0.881429
0	H	0.413341	0.885701	0.881221
0	H	0.118462	0.544828	0.881476
0	H	0.201267	0.75834	0.454853
0	H	0.246607	0.459332	0.454812
0	H	0.541308	0.801676	0.454726
0	H	0.0612706	0.845449	0.199911
0	H	0.161764	0.232109	0.199965
0	H	0.766739	0.94228	0.199924
0	H	0.935502	0.16437	0.80224
0	H	0.835012	0.777738	0.802267
0	H	0.230094	0.0675911	0.802255
0	H	0.735423	0.172392	0.53295
0	H	0.828653	0.568781	0.532826
0	H	0.437411	0.269656	0.532976
0	H	0.59836	0.500899	0.135266
0	H	0.505274	0.108465	0.135527
0	H	0.897022	0.404189	0.135252
0	H	0.398445	0.508922	0.86691
0	H	0.49151	0.901353	0.866701
0	H	0.0997668	0.605633	0.866959
0	H	0.261379	0.837429	0.469207
0	H	0.168119	0.441038	0.469398
0	H	0.559396	0.740212	0.469246
0	C	0.102522	0.888803	0.035809
0	C	0.118669	0.230634	0.0358319
0	C	0.768292	0.900245	0.0358096
0	C	0.894274	0.121005	0.966383
0	C	0.878116	0.779185	0.966368
0	C	0.228503	0.109581	0.966413
0	C	0.776846	0.215301	0.368413
0	C	0.785925	0.567578	0.368437
0	C	0.43835	0.227263	0.36837
0	C	0.557102	0.457932	0.299726
0	C	0.547549	0.106747	0.299731
0	C	0.895692	0.446072	0.299722
0	C	0.439706	0.551897	0.702473
0	C	0.449239	0.903066	0.702469
0	C	0.101099	0.563756	0.702498
0	C	0.219967	0.794521	0.633809
0	C	0.210851	0.442239	0.633774
0	C	0.558458	0.782598	0.633791
0	C	0.0948046	0.840977	0.95744
0	C	0.165919	0.270349	0.957427
0	C	0.728678	0.908253	0.957421
0	C	0.901999	0.168855	0.0447931
0	C	0.830863	0.739471	0.0447616
0	C	0.268109	0.101562	0.0447935
0	C	0.769264	0.16801	0.290609
0	C	0.832692	0.606834	0.290608
0	C	0.399063	0.235071	0.290614
0	C	0.56475	0.505251	0.377571
0	C	0.501158	0.0667585	0.377422
0	C	0.934887	0.438126	0.377495
0	C	0.432052	0.504584	0.624645
0	C	0.495634	0.943064	0.624771
0	C	0.0619107	0.571703	0.624715
0	C	0.227521	0.841813	0.711623
0	C	0.164091	0.402993	0.711584
0	C	0.597735	0.77477	0.711582
0	H	0.0920504	0.798447	0.990993
0	H	0.207918	0.309801	0.990981
0	H	0.689384	0.911274	0.99094
0	H	0.904727	0.211372	0.0112156
0	H	0.788866	0.700022	0.0112156
0	H	0.307396	0.0985401	0.0112551
0	H	0.766496	0.125223	0.323447
0	H	0.874926	0.646453	0.323475
0	H	0.359598	0.238125	0.323495
0	H	0.567526	0.547981	0.344642
0	H	0.459125	0.0270027	0.344708
0	H	0.974339	0.435077	0.344639
0	H	0.429248	0.461841	0.657565
0	H	0.537655	0.982825	0.657514
0	H	0.0224482	0.574739	0.657558
0	H	0.230318	0.884607	0.678777
0	H	0.121859	0.363367	0.678725
0	H	0.637184	0.771689	0.678701
0	C	0.0902275	0.848268	0.837887
0	C	0.158756	0.258523	0.837892
0	C	0.740401	0.912766	0.837888
0	C	0.906578	0.161571	0.164298
0	C	0.838033	0.751301	0.164313
0	C	0.256386	0.0970574	0.164315
0	C	0.764716	0.175291	0.170788
0	C	0.825554	0.59504	0.170787
0	C	0.410711	0.239549	0.170798
0	C	0.56932	0.498005	0.497366
0	C	0.508484	0.0782112	0.497308
0	C	0.923256	0.43367	0.497345
0	C	0.427487	0.511831	0.504839
0	C	0.488307	0.931612	0.504905
0	C	0.073531	0.576155	0.504862
0	C	0.23208	0.83454	0.831422
0	C	0.17123	0.414793	0.83142
0	C	0.586082	0.770286	0.831384
0	H	0.0849157	0.811654	0.777514
0	H	0.194962	0.289503	0.777494
0	H	0.709516	0.918393	0.777478
0	H	0.911876	0.198165	0.224725
0	H	0.801812	0.720316	0.224685
0	H	0.28727	0.091435	0.22479
0	H	0.759306	0.138594	0.110362
0	H	0.861808	0.626031	0.11037
0	H	0.37982	0.245183	0.110279
0	H	0.574681	0.534655	0.557825
0	H	0.472203	0.0471483	0.557817
0	H	0.954139	0.428	0.557928
0	H	0.422117	0.475175	0.444389
0	H	0.524559	0.962672	0.444354
0	H	0.042641	0.581808	0.444291
0	H	0.237491	0.871235	0.891856
0	H	0.134966	0.383792	0.891812
0	H	0.616963	0.764637	0.891934
0	C	0.0921076	0.90262	0.795291
0	C	0.105083	0.206458	0.79531
0	C	0.792228	0.910535	0.795282
0	C	0.904686	0.107184	0.206898
0	C	0.891708	0.803364	0.206908
0	C	0.20456	0.0992891	0.206908
0	C	0.766556	0.229424	0.128285
0	C	0.772073	0.543157	0.128289
0	C	0.462341	0.237297	0.128314
0	C	0.56742	0.443808	0.539861
0	C	0.561977	0.130063	0.539993
0	C	0.871642	0.435951	0.53988
0	C	0.429372	0.566008	0.462332
0	C	0.434818	0.879757	0.462224
0	C	0.125143	0.573877	0.462309
0	C	0.230229	0.780388	0.87391
0	C	0.22471	0.466664	0.873935
0	C	0.534444	0.772534	0.873863
0	H	0.0880726	0.907612	0.702448
0	H	0.100197	0.197436	0.702476
0	H	0.801149	0.914584	0.702447
0	H	0.908698	0.102222	0.299775
0	H	0.896592	0.812394	0.299725
0	H	0.195637	0.0952446	0.299731
0	H	0.762449	0.234469	0.0352214
0	H	0.76712	0.534001	0.0352315
0	H	0.471375	0.24138	0.0352606
0	H	0.57151	0.438737	0.632902
0	H	0.566856	0.139221	0.633141
0	H	0.862603	0.431889	0.632952
0	H	0.425279	0.571076	0.369289
0	H	0.429938	0.87061	0.369073
0	H	0.134176	0.577935	0.369234
0	H	0.23434	0.775347	0.96697
0	H	0.229676	0.475828	0.966981
0	H	0.525408	0.768445	0.966924
0	C	0.0987824	0.949348	0.872371
0	C	0.0589136	0.166789	0.87238
0	C	0.831733	0.9035	0.872355
0	C	0.897996	0.0604705	0.129848
0	C	0.937881	0.843029	0.129822
0	C	0.165055	0.10632	0.12984
0	C	0.77323	0.2762	0.205614
0	C	0.725862	0.503447	0.205649
0	C	0.501879	0.230209	0.205573
0	C	0.560732	0.397045	0.462521
0	C	0.608167	0.169767	0.462656
0	C	0.832086	0.443007	0.46259
0	C	0.43604	0.61277	0.53969
0	C	0.388625	0.840054	0.539542
0	C	0.164702	0.566819	0.539604
0	C	0.223545	0.733619	0.796588
0	C	0.270931	0.506376	0.796553
0	C	0.494912	0.77962	0.796616
0	H	0.10046	0.991646	0.840056
0	H	0.0171653	0.12651	0.840064
0	H	0.87179	0.901483	0.840033
0	H	0.896301	0.0181664	0.162122
0	H	0.979625	0.883319	0.162142
0	H	0.124995	0.10834	0.16215
0	H	0.774875	0.318375	0.17295
0	H	0.684205	0.463214	0.17296
0	H	0.541869	0.228247	0.172945
0	H	0.559074	0.354846	0.495174
0	H	0.649906	0.210006	0.495527
0	H	0.792064	0.444992	0.495251
0	H	0.43768	0.65496	0.507013
0	H	0.346887	0.799821	0.50668
0	H	0.20472	0.564831	0.506931
0	H	0.221887	0.691434	0.829234
0	H	0.312592	0.546609	0.829256
0	H	0.454916	0.781573	0.829233
0	C	0.104043	0.94254	0.992713
0	C	0.0655999	0.178838	0.992761
0	C	0.819788	0.898265	0.992726
0	C	0.89274	0.0672875	0.00944871
0	C	0.931195	0.830985	0.00945824
0	C	0.176991	0.111556	0.00945979
0	C	0.778401	0.26928	0.325495
0	C	0.732667	0.515533	0.325554
0	C	0.489959	0.22509	0.325502
0	C	0.555564	0.403978	0.342587
0	C	0.601172	0.158051	0.342643
0	C	0.844006	0.448084	0.34263
0	C	0.441221	0.605847	0.659604
0	C	0.395624	0.851772	0.659565
0	C	0.152783	0.561745	0.659559
0	C	0.218379	0.74054	0.676699
0	C	0.26412	0.494294	0.676664
0	C	0.506832	0.784743	0.676689
0	H	0.109383	0.979438	0.0523375
0	H	0.0291467	0.147591	0.0523378
0	H	0.850888	0.892614	0.0523439
0	H	0.887391	0.0303867	0.94985
0	H	0.967634	0.862233	0.949845
0	H	0.145903	0.117218	0.949846
0	H	0.783639	0.305977	0.384512
0	H	0.696378	0.484335	0.384509
0	H	0.520937	0.21951	0.384516
0	H	0.550316	0.367247	0.283622
0	H	0.637677	0.18903	0.283852
0	H	0.812997	0.45369	0.283636
0	H	0.446449	0.642569	0.718574
0	H	0.359107	0.820799	0.71834
0	H	0.183784	0.55612	0.718554
0	H	0.213131	0.703837	0.617677
0	H	0.300405	0.52548	0.617682
0	H	0.475841	0.790298	0.61768
