#******************************************
#
# CIF file created by Zeo++
# Zeo++ is an open source package to
# analyze microporous materials
#
#*******************************************

_cell_length_a		8.61026(0)
_cell_length_b		10.6068(0)
_cell_length_c		31.2678(0)
_cell_angle_alpha		90(0)
_cell_angle_beta		84.4766(0)
_cell_angle_gamma		90(0)

_symmetry_space_group_name_H-M		'P1'
_symmetry_Int_Tables_number		1
_symmetry_cell_setting		Monoclinic

loop_
_symmetry_equiv_pos_as_xyz
'+x,+y,+z'

loop_
_atom_site_label
_atom_site_type_symbol
_atom_site_fract_x
_atom_site_fract_y
_atom_site_fract_z
0	S	0.511588	0.526813	0.6884
0	S	0.79362	0.0297739	0.794382
0	S	0.354985	0.476856	0.295081
0	S	0.0726845	0.97404	0.189137
0	S	0.333269	0.415349	0.620804
0	S	0.967201	0.915677	0.862424
0	S	0.533355	0.588332	0.362672
0	S	0.898901	0.0882733	0.121152
0	O	0.460663	0.856792	0.659987
0	O	0.846178	0.358986	0.823285
0	O	0.405708	0.146883	0.32357
0	O	0.0204733	0.644926	0.160042
0	O	0.556965	0.70741	0.702375
0	O	0.753982	0.210484	0.779779
0	O	0.309513	0.296185	0.28112
0	O	0.112526	0.793196	0.203671
0	N	0.482476	0.272967	0.67551
0	N	0.819162	0.77534	0.806991
0	N	0.384083	0.730693	0.307963
0	N	0.047232	0.228507	0.176543
0	C	0.44825	0.387255	0.663638
0	C	0.853504	0.889199	0.819251
0	C	0.418381	0.616409	0.319841
0	C	0.0127646	0.114667	0.164304
0	C	0.421334	0.628544	0.652188
0	C	0.884406	0.130475	0.830885
0	C	0.445195	0.375125	0.331293
0	C	0.981988	0.873435	0.152599
0	C	0.341254	0.584421	0.621494
0	C	0.96531	0.0849434	0.861174
0	C	0.525319	0.41926	0.361981
0	C	0.900975	0.91899	0.12234
0	C	0.438898	0.156126	0.652438
0	C	0.861109	0.657508	0.829794
0	C	0.427565	0.847603	0.331015
0	C	0.00530334	0.346352	0.153747
0	H	0.344358	0.173463	0.631471
0	H	0.954099	0.673816	0.851324
0	H	0.522	0.830328	0.352007
0	H	0.912232	0.330072	0.132236
0	H	0.391904	0.0848802	0.676842
0	H	0.909663	0.587253	0.805218
0	H	0.474598	0.918767	0.306595
0	H	0.956826	0.416626	0.178329
0	C	0.585248	0.102425	0.626847
0	C	0.713261	0.602818	0.854378
0	C	0.281136	0.901342	0.356575
0	C	0.153129	0.40098	0.129146
0	H	0.552486	0.0122745	0.611735
0	H	0.745071	0.512217	0.869388
0	H	0.313813	0.991493	0.371691
0	H	0.121335	0.491523	0.114094
0	H	0.627689	0.16703	0.600526
0	H	0.66832	0.66659	0.880672
0	H	0.238613	0.83678	0.382895
0	H	0.198005	0.337158	0.102862
0	C	0.713728	0.0764845	0.656468
0	C	0.587944	0.577433	0.823732
0	C	0.152784	0.927205	0.3269
0	C	0.278475	0.426369	0.159785
0	H	0.821183	0.0446059	0.637275
0	H	0.479351	0.544132	0.842014
0	H	0.045248	0.959257	0.34604
0	H	0.387029	0.45979	0.141491
0	H	0.676785	0.996198	0.678033
0	H	0.627403	0.498314	0.801939
0	H	0.189843	0.00744059	0.305313
0	H	0.239005	0.505454	0.181589
0	C	0.748005	0.192932	0.682983
0	C	0.555101	0.694894	0.797566
0	C	0.118559	0.810688	0.300437
0	C	0.311391	0.308857	0.185912
0	H	0.829912	0.168721	0.707274
0	H	0.475619	0.671294	0.772593
0	H	0.0366992	0.83479	0.276117
0	H	0.391	0.332375	0.210874
0	H	0.807451	0.266174	0.662195
0	H	0.493448	0.767052	0.818356
0	H	0.0590012	0.737497	0.32126
0	H	0.37296	0.236712	0.165099
0	C	0.599067	0.246812	0.707208
0	C	0.705279	0.750198	0.774478
0	C	0.267498	0.756745	0.276254
0	C	0.161251	0.25361	0.209029
0	H	0.546935	0.17792	0.731604
0	H	0.759455	0.682132	0.750154
0	H	0.319653	0.825416	0.251801
0	H	0.107172	0.321669	0.233372
0	H	0.626255	0.331943	0.725999
0	H	0.679301	0.835929	0.755879
0	H	0.240315	0.671561	0.257529
0	H	0.187178	0.167833	0.2276
0	C	0.263901	0.643538	0.587196
0	C	0.0537372	0.141397	0.893739
0	C	0.60266	0.360076	0.396277
0	C	0.812499	0.862652	0.0897643
0	C	0.10127	0.665127	0.592128
0	C	0.216949	0.156529	0.885349
0	C	0.765321	0.338598	0.391378
0	C	0.649311	0.847488	0.0981632
0	C	0.0282099	0.712964	0.557399
0	C	0.303142	0.200333	0.918087
0	C	0.838326	0.290705	0.426108
0	C	0.563093	0.80372	0.0654245
0	H	0.901467	0.727893	0.561031
0	H	0.429605	0.208759	0.911697
0	H	0.965077	0.27587	0.422517
0	H	0.436644	0.795265	0.0718097
0	C	0.114207	0.741807	0.518417
0	C	0.229834	0.233127	0.958436
0	C	0.752164	0.261711	0.465065
0	C	0.63634	0.770991	0.0250583
0	C	0.276744	0.726746	0.514662
0	C	0.0671378	0.224271	0.965714
0	C	0.589661	0.276623	0.468779
0	C	0.799035	0.77988	0.0177726
0	H	0.344553	0.753521	0.484827
0	H	0.0091059	0.253192	0.996669
0	H	0.521801	0.249639	0.498585
0	H	0.857054	0.751011	0.986813
0	C	0.353033	0.67809	0.548527
0	C	0.977993	0.178456	0.933911
0	C	0.513419	0.325316	0.434908
0	C	0.8882	0.825661	0.0495807
0	C	0.479056	0.74846	0.671192
0	C	0.829002	0.250945	0.811664
0	C	0.387413	0.255187	0.312312
0	C	0.0375042	0.75289	0.171777
0	C	0.00376072	0.635322	0.634084
0	C	0.301864	0.123826	0.84186
0	C	0.8628	0.368429	0.349429
0	C	0.564307	0.880195	0.141639
0	H	0.0825137	0.617065	0.659962
0	H	0.215689	0.106704	0.81782
0	H	0.784038	0.386893	0.323569
0	H	0.650434	0.897567	0.165677
0	C	0.898578	0.746526	0.648996
0	C	0.406599	0.232809	0.824563
0	C	0.967752	0.257122	0.334481
0	C	0.459835	0.771093	0.158954
0	H	0.967486	0.829907	0.655486
0	H	0.337617	0.316092	0.818014
0	H	0.898684	0.173761	0.328079
0	H	0.528954	0.687968	0.165594
0	H	0.824037	0.723196	0.678559
0	H	0.476951	0.206277	0.794637
0	H	0.0420302	0.280319	0.304866
0	H	0.38923	0.797664	0.188843
0	H	0.818321	0.772877	0.625342
0	H	0.490759	0.261187	0.846925
0	H	0.0482522	0.230772	0.358075
0	H	0.375887	0.742438	0.136578
0	C	0.90795	0.515691	0.628242
0	C	0.395032	0.00204185	0.846266
0	C	0.958828	0.487917	0.355289
0	C	0.470776	0.00177024	0.137171
0	H	0.823859	0.529348	0.604477
0	H	0.486428	0.0144441	0.867986
0	H	0.0430234	0.474035	0.379015
0	H	0.379231	0.989038	0.115519
0	H	0.841133	0.489272	0.658584
0	H	0.452546	0.972795	0.815001
0	H	0.0256253	0.514421	0.324928
0	H	0.413348	0.0312071	0.168446
0	H	0.982907	0.436059	0.617679
0	H	0.319585	0.924763	0.858828
0	H	0.884004	0.567584	0.365884
0	H	0.545976	0.0790624	0.124497
0	C	0.0312672	0.787966	0.480641
0	C	0.329024	0.275749	0.993375
0	C	0.835089	0.21544	0.502833
0	C	0.537109	0.728389	0.990123
0	H	0.903787	0.79956	0.491233
0	H	0.453466	0.287866	0.978657
0	H	0.962596	0.203927	0.492264
0	H	0.412634	0.716471	0.00484615
0	C	0.0948498	0.916748	0.465122
0	C	0.274236	0.403176	0.0122803
0	C	0.771524	0.0866018	0.518276
0	C	0.591602	0.600809	0.971298
0	H	0.218297	0.911757	0.452867
0	H	0.156966	0.39758	0.0292161
0	H	0.648011	0.0914964	0.530482
0	H	0.708887	0.606202	0.954343
0	H	0.0849379	0.985939	0.491315
0	H	0.270678	0.474769	0.987091
0	H	0.781612	0.0175202	0.492052
0	H	0.595114	0.529352	0.996525
0	H	0.0308167	0.953857	0.439203
0	H	0.352817	0.437407	0.0353144
0	H	0.835443	0.0494316	0.544212
0	H	0.512887	0.566546	0.9483
0	C	0.0468051	0.689902	0.44441
0	C	0.328364	0.174535	0.0284194
0	C	0.819415	0.313409	0.539097
0	C	0.538007	0.829417	0.955027
0	H	0.169105	0.671653	0.432946
0	H	0.210816	0.158621	0.044296
0	H	0.69707	0.33174	0.550489
0	H	0.655552	0.845195	0.939159
0	H	0.987345	0.721208	0.416826
0	H	0.403831	0.201188	0.0532289
0	H	0.87861	0.281927	0.566707
0	H	0.46256	0.802654	0.930215
0	H	0.995261	0.599375	0.455168
0	H	0.370058	0.0836687	0.015085
0	H	0.871142	0.403925	0.528398
0	H	0.496302	0.92037	0.9683
0	C	0.529901	0.665529	0.544013
0	C	0.801359	0.171674	0.942743
0	C	0.336511	0.337644	0.439391
0	C	0.0647904	0.832471	0.0407507
0	H	0.565062	0.591735	0.566895
0	H	0.752806	0.10791	0.918755
0	H	0.301268	0.411351	0.416497
0	H	0.113278	0.896708	0.0646229
0	C	0.601338	0.791335	0.556304
0	C	0.73367	0.303909	0.937362
0	C	0.265339	0.211713	0.427098
0	C	0.132526	0.700356	0.0463959
0	H	0.580977	0.866022	0.53334
0	H	0.788812	0.373948	0.956737
0	H	0.286288	0.136967	0.449995
0	H	0.0776374	0.630006	0.0270866
0	H	0.728287	0.782233	0.55761
0	H	0.60717	0.305875	0.947324
0	H	0.138323	0.220476	0.425897
0	H	0.259063	0.69836	0.03653
0	H	0.550539	0.823517	0.588161
0	H	0.752219	0.334791	0.903631
0	H	0.315967	0.179758	0.395195
0	H	0.113612	0.66994	0.0801723
0	C	0.594685	0.623436	0.498908
0	C	0.751781	0.116954	0.987333
0	C	0.271515	0.379648	0.484493
0	C	0.114458	0.886432	0.996053
0	H	0.539428	0.535419	0.489584
0	H	0.803349	0.0234181	0.991368
0	H	0.326898	0.467518	0.493913
0	H	0.0627098	0.979784	0.991814
0	H	0.720576	0.605941	0.497419
0	H	0.624805	0.105708	0.992469
0	H	0.145681	0.397399	0.485912
0	H	0.241452	0.897799	0.990924
0	H	0.576307	0.69406	0.474341
0	H	0.786633	0.17715	0.0132183
0	H	0.289463	0.308809	0.509026
0	H	0.079787	0.825715	0.970284
