#******************************************
#
# CIF file created by Zeo++
# Zeo++ is an open source package to
# analyze microporous materials
#
#*******************************************

_cell_length_a		7.93789(0)
_cell_length_b		12.4431(0)
_cell_length_c		11.2575(0)
_cell_angle_alpha		67.3275(0)
_cell_angle_beta		88.8232(0)
_cell_angle_gamma		87.4647(0)

_symmetry_space_group_name_H-M		'P1'
_symmetry_Int_Tables_number		1
_symmetry_cell_setting		Triclinic

loop_
_symmetry_equiv_pos_as_xyz
'+x,+y,+z'

loop_
_atom_site_label
_atom_site_type_symbol
_atom_site_fract_x
_atom_site_fract_y
_atom_site_fract_z
0	O	0.165357	0.0576737	0.923032
0	O	0.0885897	0.837049	0.197172
0	O	0.923477	0.974922	0.911315
0	O	0.330328	0.919956	0.208786
0	O	0.61487	0.194868	0.961994
0	O	0.639367	0.700852	0.157308
0	O	0.777097	0.0899688	0.133762
0	O	0.475945	0.804772	0.985996
0	O	0.81664	0.111964	0.467395
0	O	0.438291	0.783273	0.652911
0	O	0.72841	0.283084	0.312525
0	O	0.524872	0.611215	0.806997
0	O	0.304838	0.304405	0.345678
0	O	0.949377	0.590419	0.774501
0	O	0.378826	0.114115	0.395901
0	O	0.874819	0.780596	0.724222
0	C	0.214982	0.169363	0.929414
0	C	0.0390728	0.725361	0.190736
0	C	0.0647563	0.196389	0.00368476
0	C	0.18926	0.69848	0.116363
0	C	0.918183	0.168056	0.933471
0	C	0.335858	0.726874	0.186537
0	C	0.900643	0.262862	0.796423
0	C	0.35362	0.631984	0.323477
0	C	0.0620445	0.271034	0.714377
0	C	0.1923	0.623647	0.405663
0	C	0.0649524	0.182058	0.653647
0	C	0.189343	0.712531	0.466534
0	C	0.202276	0.120091	0.643544
0	C	0.0519422	0.774401	0.476702
0	C	0.370582	0.12652	0.699158
0	C	0.8837	0.767974	0.421011
0	C	0.384608	0.242148	0.719005
0	C	0.869677	0.652347	0.40117
0	C	0.226371	0.265731	0.791111
0	C	0.0279204	0.628873	0.329021
0	C	0.410337	0.344589	0.589164
0	C	0.844006	0.549932	0.53102
0	C	0.562524	0.323295	0.514777
0	C	0.691667	0.571254	0.60532
0	C	0.546358	0.20989	0.491344
0	C	0.707774	0.68466	0.628728
0	C	0.520244	0.105942	0.620172
0	C	0.733937	0.788575	0.499878
0	C	0.245085	0.382268	0.806753
0	C	0.00932633	0.512326	0.313349
0	C	0.991722	0.0552328	0.921787
0	C	0.262213	0.839616	0.198282
0	C	0.752223	0.154219	0.00556826
0	C	0.501625	0.740941	0.114186
0	C	0.627151	0.0680567	0.215586
0	C	0.625176	0.826819	0.903434
0	C	0.711029	0.190062	0.427507
0	C	0.543122	0.704607	0.69249
0	C	0.881635	0.285869	0.238648
0	C	0.371561	0.608675	0.880708
0	C	0.396784	0.220805	0.402342
0	C	0.857232	0.673872	0.717766
0	C	0.229566	0.0970312	0.333559
0	C	0.0239854	0.797878	0.786551
0	H	0.336918	0.145922	0.981121
0	H	0.917054	0.748776	0.139121
0	H	0.0682629	0.138348	0.107122
0	H	0.18565	0.756543	0.012941
0	H	0.0580065	0.28706	0.997532
0	H	0.196139	0.607839	0.122475
0	H	0.871736	0.348401	0.803588
0	H	0.382555	0.546501	0.316153
0	H	0.789922	0.246336	0.747982
0	H	0.464354	0.648554	0.371874
0	H	0.0555292	0.358788	0.632654
0	H	0.19898	0.535863	0.487323
0	H	0.944398	0.17143	0.615161
0	H	0.309856	0.723127	0.505079
0	H	0.197575	0.0575811	0.597224
0	H	0.0565774	0.836839	0.523121
0	H	0.376331	0.0526635	0.797178
0	H	0.878041	0.84182	0.322983
0	H	0.497581	0.233366	0.781009
0	H	0.756704	0.66108	0.339173
0	H	0.29556	0.359661	0.528903
0	H	0.958719	0.53488	0.591343
0	H	0.426373	0.425974	0.605433
0	H	0.82789	0.468536	0.514776
0	H	0.680242	0.317407	0.568984
0	H	0.574085	0.57718	0.551007
0	H	0.575416	0.397876	0.420872
0	H	0.678599	0.496647	0.699165
0	H	0.502353	0.0255805	0.601417
0	H	0.751742	0.868959	0.518612
0	H	0.63762	0.0886039	0.677761
0	H	0.616624	0.80587	0.442237
0	H	0.351632	0.377269	0.869559
0	H	0.902759	0.517274	0.250617
0	H	0.131049	0.409512	0.846705
0	H	0.123352	0.485181	0.27325
0	H	0.268069	0.454241	0.714416
0	H	0.986499	0.440303	0.405676
0	H	0.677395	0.0107671	0.309795
0	H	0.573238	0.880754	0.808587
0	H	0.534524	0.0244495	0.180277
0	H	0.715599	0.874099	0.935825
0	H	0.574308	0.1505	0.216467
0	H	0.681241	0.744125	0.905593
0	H	0.860151	0.365293	0.152405
0	H	0.392324	0.528811	0.966636
0	H	0.891781	0.207484	0.216109
0	H	0.362093	0.68672	0.903895
0	H	0.991251	0.292049	0.293293
0	H	0.261889	0.603299	0.825654
0	H	0.258554	0.0115338	0.327767
0	H	0.994547	0.883214	0.792655
0	H	0.215253	0.166182	0.238046
0	H	0.0387069	0.728575	0.881928
0	H	0.119576	0.0936809	0.395442
0	H	0.133903	0.801697	0.724466
