#******************************************
#
# CIF file created by Zeo++
# Zeo++ is an open source package to
# analyze microporous materials
#
#*******************************************

_cell_length_a		40.9809(0)
_cell_length_b		5.96508(0)
_cell_length_c		23.6653(0)
_cell_angle_alpha		90(0)
_cell_angle_beta		117.673(0)
_cell_angle_gamma		90(0)

_symmetry_space_group_name_H-M		'P1'
_symmetry_Int_Tables_number		1
_symmetry_cell_setting		Monoclinic

loop_
_symmetry_equiv_pos_as_xyz
'+x,+y,+z'

loop_
_atom_site_label
_atom_site_type_symbol
_atom_site_fract_x
_atom_site_fract_y
_atom_site_fract_z
0	C	0.305678	0.736079	0.0997534
0	C	0.70796	0.73333	0.424125
0	C	0.707977	0.247851	0.922314
0	C	0.30595	0.248463	0.598729
0	C	0.805984	0.239497	0.100168
0	C	0.207602	0.237504	0.423685
0	C	0.207706	0.743901	0.922025
0	C	0.806178	0.744565	0.598938
0	H	0.306626	0.733209	0.0539344
0	H	0.708371	0.71878	0.470892
0	H	0.707001	0.251532	0.968107
0	H	0.305479	0.26511	0.551957
0	H	0.806906	0.235906	0.0543164
0	H	0.208055	0.221974	0.470474
0	H	0.206734	0.747507	0.967833
0	H	0.805621	0.761496	0.552099
0	H	0.311559	0.563527	0.118404
0	H	0.700814	0.566169	0.402119
0	H	0.702082	0.420128	0.903442
0	H	0.313259	0.414652	0.621322
0	H	0.811987	0.0673065	0.119117
0	H	0.200265	0.0709085	0.40131
0	H	0.201746	0.916118	0.903091
0	H	0.813627	0.910458	0.621712
0	H	0.32903	0.838383	0.13318
0	H	0.684838	0.843619	0.394355
0	H	0.684644	0.145206	0.889005
0	H	0.328987	0.136914	0.628029
0	H	0.829218	0.343135	0.133379
0	H	0.184638	0.349319	0.394209
0	H	0.184467	0.640428	0.888761
0	H	0.82909	0.63185	0.628021
0	C	0.269618	0.82106	0.0917252
0	C	0.743893	0.817538	0.431436
0	C	0.744057	0.16259	0.930506
0	C	0.269964	0.164482	0.591219
0	C	0.769838	0.323502	0.0920177
0	C	0.243635	0.320526	0.431153
0	C	0.243854	0.659714	0.93024
0	C	0.770147	0.66156	0.591471
0	C	0.246831	0.682584	0.106347
0	C	0.766463	0.679034	0.41632
0	C	0.766911	0.300985	0.916017
0	C	0.247359	0.303042	0.606237
0	C	0.747189	0.184816	0.106901
0	C	0.26605	0.181755	0.415777
0	C	0.266546	0.798378	0.915451
0	C	0.747727	0.800494	0.606814
0	H	0.25596	0.513971	0.125019
0	H	0.75717	0.510955	0.397379
0	H	0.757817	0.469635	0.897341
0	H	0.256648	0.471126	0.62519
0	H	0.756467	0.016695	0.125998
0	H	0.256575	0.0142398	0.396396
0	H	0.257291	0.966479	0.896358
0	H	0.757182	0.968137	0.626158
0	C	0.212897	0.760378	0.0981364
0	C	0.800408	0.756426	0.424441
0	C	0.800856	0.222991	0.92434
0	C	0.213399	0.225728	0.598051
0	C	0.713147	0.261674	0.0985164
0	C	0.300109	0.258065	0.424061
0	C	0.300599	0.721448	0.923921
0	C	0.71366	0.724244	0.598485
0	H	0.195266	0.651675	0.109494
0	H	0.817898	0.647832	0.412693
0	H	0.818541	0.331617	0.913091
0	H	0.195886	0.334366	0.609743
0	H	0.695584	0.152685	0.11004
0	H	0.317513	0.148955	0.412175
0	H	0.318198	0.830395	0.912477
0	H	0.696243	0.83318	0.610403
0	C	0.200975	0.978569	0.0752004
0	C	0.812483	0.974234	0.447645
0	C	0.81271	0.00463833	0.947208
0	C	0.201327	0.00789609	0.574864
0	C	0.70103	0.479146	0.0751934
0	C	0.312422	0.475066	0.447645
0	C	0.312674	0.503866	0.947191
0	C	0.701375	0.507203	0.574889
0	C	0.223656	0.116872	0.0602999
0	C	0.790007	0.112625	0.463017
0	C	0.789969	0.866461	0.961987
0	C	0.223814	0.869521	0.55952
0	C	0.723618	0.618109	0.0601327
0	C	0.290051	0.614154	0.463195
0	C	0.290034	0.364872	0.962108
0	C	0.723743	0.367914	0.559388
0	H	0.214711	0.286041	0.0422237
0	H	0.799176	0.281515	0.481335
0	H	0.798864	0.697173	0.98001
0	H	0.214648	0.700658	0.541174
0	H	0.714515	0.786769	0.0418161
0	H	0.299397	0.782396	0.481818
0	H	0.299087	0.196069	0.980341
0	H	0.714364	0.199589	0.540846
0	C	0.257779	0.0390265	0.0689982
0	C	0.755914	0.0349579	0.454496
0	C	0.755837	0.94451	0.953202
0	C	0.257927	0.947152	0.56811
0	C	0.757813	0.541317	0.0689973
0	C	0.255881	0.537705	0.454524
0	C	0.255832	0.441771	0.953181
0	C	0.757927	0.444322	0.568102
0	H	0.27549	0.148157	0.0582015
0	H	0.738439	0.143753	0.465961
0	H	0.738076	0.835474	0.963893
0	H	0.275406	0.83834	0.556673
0	H	0.77549	0.650782	0.0582108
0	H	0.238444	0.646809	0.465979
0	H	0.238111	0.332359	0.963855
0	H	0.775333	0.33496	0.556609
0	C	0.120605	0.874586	0.764282
0	C	0.898417	0.878131	0.761325
0	C	0.893228	0.108404	0.258206
0	C	0.115508	0.105449	0.261279
0	C	0.620588	0.375759	0.763954
0	C	0.398445	0.379479	0.761655
0	C	0.393217	0.60727	0.258522
0	C	0.615508	0.604114	0.26097
0	H	0.0981684	0.965176	0.724672
0	H	0.921244	0.973413	0.798861
0	H	0.915541	0.0168438	0.297762
0	H	0.092746	0.0100495	0.223658
0	H	0.597838	0.465577	0.724614
0	H	0.421562	0.473994	0.79889
0	H	0.415847	0.516444	0.297808
0	H	0.592449	0.509447	0.223667
0	H	0.114007	0.695487	0.756039
0	H	0.905881	0.700241	0.770213
0	H	0.900042	0.287206	0.266612
0	H	0.107976	0.283253	0.252421
0	H	0.614257	0.196422	0.755808
0	H	0.405658	0.201359	0.770504
0	H	0.399772	0.786309	0.266842
0	H	0.608238	0.782162	0.252172
0	H	0.145349	0.905467	0.758344
0	H	0.874606	0.90656	0.770146
0	H	0.868435	0.0787224	0.264083
0	H	0.139373	0.0775859	0.25257
0	H	0.64513	0.408706	0.757559
0	H	0.374835	0.409997	0.770905
0	H	0.368615	0.575504	0.264834
0	H	0.639176	0.57405	0.251852
0	C	0.125618	0.952858	0.827686
0	C	0.891062	0.952742	0.696333
0	C	0.888147	0.0301841	0.194757
0	C	0.122811	0.030383	0.326208
0	C	0.625701	0.453176	0.827487
0	C	0.391008	0.453243	0.696557
0	C	0.388035	0.530022	0.194933
0	C	0.622904	0.529973	0.32602
0	C	0.116097	0.814738	0.865903
0	C	0.899316	0.813214	0.65682
0	C	0.89762	0.16832	0.156475
0	C	0.114605	0.169843	0.365801
0	C	0.616002	0.315074	0.865485
0	C	0.399455	0.313667	0.657278
0	C	0.3977	0.668154	0.156894
0	C	0.614495	0.669531	0.365361
0	H	0.104627	0.648468	0.849071
0	H	0.910788	0.646808	0.673227
0	H	0.909091	0.334602	0.173288
0	H	0.103175	0.336369	0.349463
0	H	0.604419	0.149192	0.848452
0	H	0.411025	0.14773	0.673853
0	H	0.409297	0.833989	0.173955
0	H	0.602939	0.83566	0.348801
0	C	0.121248	0.890035	0.925325
0	C	0.893025	0.887596	0.596698
0	C	0.892422	0.0930199	0.097033
0	C	0.120882	0.0951754	0.425886
0	C	0.621081	0.389811	0.92492
0	C	0.393223	0.387356	0.597136
0	C	0.392595	0.593415	0.0974404
0	C	0.620701	0.595463	0.425463
0	H	0.11447	0.779989	0.955415
0	H	0.898948	0.777169	0.565658
0	H	0.899144	0.203081	0.0668774
0	H	0.114983	0.205527	0.456971
0	H	0.614144	0.279801	0.954876
0	H	0.399331	0.277133	0.566214
0	H	0.399474	0.703597	0.0674441
0	H	0.614615	0.705719	0.456404
0	C	0.135232	0.105103	0.946949
0	C	0.879076	0.102926	0.575501
0	C	0.878472	0.877854	0.0754659
0	C	0.134768	0.879627	0.446971
0	C	0.63522	0.604665	0.946749
0	C	0.37908	0.602444	0.575759
0	C	0.378503	0.378425	0.0756462
0	C	0.634761	0.380123	0.446754
0	C	0.145165	0.242333	0.90922
0	C	0.869931	0.240401	0.61421
0	C	0.868584	0.74062	0.113244
0	C	0.143841	0.742172	0.408174
0	C	0.645367	0.74191	0.909296
0	C	0.369719	0.740102	0.61416
0	C	0.368382	0.241228	0.113143
0	C	0.644067	0.242581	0.408262
0	H	0.156458	0.408962	0.925957
0	H	0.858423	0.406898	0.597825
0	H	0.857311	0.57392	0.0965554
0	H	0.155285	0.575469	0.424468
0	H	0.656765	0.908231	0.926234
0	H	0.358121	0.90633	0.597557
0	H	0.356996	0.0748889	0.0962205
0	H	0.655598	0.0761744	0.424799
0	C	0.14047	0.166237	0.850165
0	C	0.875759	0.165282	0.674004
0	C	0.873301	0.816789	0.172311
0	C	0.138014	0.817536	0.348397
0	C	0.640719	0.666253	0.85023
0	C	0.375514	0.665386	0.673969
0	C	0.373024	0.316942	0.172205
0	C	0.638292	0.317476	0.34847
0	H	0.148401	0.272765	0.821127
0	H	0.868478	0.272177	0.703809
0	H	0.865388	0.710264	0.201375
0	H	0.145217	0.710579	0.318507
0	H	0.648784	0.772788	0.821346
0	H	0.368075	0.772152	0.703581
0	H	0.364978	0.210344	0.201095
0	H	0.645647	0.210481	0.318749
0	C	0.199236	0.98114	0.219195
0	C	0.812218	0.988336	0.302848
0	C	0.814413	0.00176508	0.803176
0	C	0.201543	0.994817	0.719572
0	C	0.699223	0.483233	0.21884
0	C	0.312234	0.490359	0.303244
0	C	0.314454	0.499712	0.803542
0	C	0.701467	0.492732	0.719147
0	H	0.210129	0.142003	0.214026
0	H	0.802172	0.150203	0.309452
0	H	0.803526	0.840858	0.80833
0	H	0.211675	0.833115	0.713051
0	H	0.710014	0.644107	0.21333
0	H	0.302302	0.652195	0.310187
0	H	0.303671	0.338768	0.809027
0	H	0.711463	0.331062	0.712246
0	C	0.216809	0.860404	0.276104
0	C	0.793406	0.871576	0.245516
0	C	0.796846	0.122536	0.746278
0	C	0.220292	0.11193	0.776867
0	C	0.716828	0.364553	0.276095
0	C	0.293375	0.375717	0.245569
0	C	0.296843	0.618455	0.746302
0	C	0.720272	0.607712	0.776784
0	H	0.241483	0.928496	0.316059
0	H	0.768496	0.943243	0.206926
0	H	0.772178	0.0544688	0.70631
0	H	0.245233	0.0407056	0.815488
0	H	0.741396	0.434174	0.315941
0	H	0.268609	0.449022	0.207055
0	H	0.27228	0.54888	0.706456
0	H	0.74512	0.534995	0.815252
0	C	0.203057	0.652152	0.282125
0	C	0.806154	0.6627	0.237418
0	C	0.810599	0.330851	0.740288
0	C	0.20742	0.320459	0.784898
0	C	0.703188	0.156541	0.282627
0	C	0.305993	0.16714	0.236925
0	C	0.310473	0.826532	0.739786
0	C	0.707538	0.815951	0.785368
0	H	0.217382	0.557318	0.326363
0	H	0.790917	0.571437	0.192813
0	H	0.796276	0.425687	0.69605
0	H	0.222589	0.411958	0.82948
0	H	0.717469	0.0633258	0.327189
0	H	0.290814	0.0775896	0.191987
0	H	0.296185	0.919787	0.695233
0	H	0.722693	0.9059	0.830254
0	C	0.171348	0.563926	0.231441
0	C	0.837995	0.569426	0.286553
0	C	0.842299	0.419103	0.790987
0	C	0.175537	0.413119	0.735712
0	C	0.671578	0.0664718	0.232098
0	C	0.337719	0.0720005	0.285894
0	C	0.342083	0.91662	0.790318
0	C	0.675749	0.910408	0.736369
0	H	0.160755	0.401427	0.236278
0	H	0.847678	0.406158	0.280089
0	H	0.852889	0.58164	0.786173
0	H	0.165747	0.57608	0.742124
0	H	0.661034	0.904346	0.237388
0	H	0.347368	0.909232	0.278964
0	H	0.352617	0.0787747	0.785048
0	H	0.666043	0.0730268	0.743245
0	C	0.153566	0.683133	0.174273
0	C	0.856955	0.684395	0.344229
0	C	0.860081	0.299778	0.848138
0	C	0.156657	0.297883	0.678071
0	C	0.653733	0.183761	0.174578
0	C	0.356755	0.185068	0.343909
0	C	0.359938	0.799217	0.847814
0	C	0.656778	0.797203	0.678379
0	H	0.129098	0.615251	0.133779
0	H	0.881524	0.612284	0.383475
0	H	0.884547	0.367644	0.888642
0	H	0.132053	0.369505	0.638779
0	H	0.629272	0.114887	0.134187
0	H	0.381299	0.11196	0.383056
0	H	0.384403	0.86804	0.888214
0	H	0.632185	0.869911	0.639262
0	C	0.167696	0.89087	0.167961
0	C	0.843907	0.892992	0.352622
0	C	0.845954	0.0920272	0.854423
0	C	0.169802	0.0894961	0.669753
0	C	0.667732	0.3914	0.16784
0	C	0.34389	0.393624	0.352772
0	C	0.345946	0.591559	0.854544
0	C	0.669792	0.589046	0.669589
0	C	0.021761	0.277726	0.972816
0	C	0.991341	0.274208	0.547482
0	C	0.991908	0.70525	0.0495865
0	C	0.0224272	0.710016	0.474785
0	C	0.521574	0.775388	0.972532
0	C	0.491514	0.771879	0.547753
0	C	0.492156	0.207912	0.0499087
0	C	0.522196	0.212382	0.47446
0	H	0.0338315	0.1337	0.0043733
0	H	0.979194	0.13304	0.5149
0	H	0.979834	0.849232	0.018026
0	H	0.0346502	0.851186	0.507342
0	H	0.533551	0.630205	0.00358152
0	H	0.479432	0.629688	0.515535
0	H	0.480194	0.353126	0.0189104
0	H	0.534368	0.354485	0.506652
0	C	0.983447	0.301442	0.939349
0	C	0.0296711	0.293656	0.582164
0	C	0.0302238	0.681552	0.0830556
0	C	0.984094	0.691303	0.440097
0	C	0.483358	0.800001	0.939079
0	C	0.529752	0.792061	0.582442
0	C	0.53037	0.18311	0.0833762
0	C	0.48396	0.192763	0.439777
0	H	0.965601	0.172891	0.943429
0	H	0.0474259	0.164251	0.578227
0	H	0.0480708	0.810149	0.0789975
0	H	0.966406	0.821136	0.444026
0	H	0.465337	0.671718	0.942717
0	H	0.547669	0.662868	0.578913
0	H	0.548418	0.311353	0.0797664
0	H	0.466135	0.32241	0.443344
0	C	0.967983	0.490029	0.90102
0	C	0.04533	0.478815	0.621969
0	C	0.045687	0.492849	0.121333
0	C	0.968333	0.506229	0.400321
0	C	0.467999	0.98968	0.901155
0	C	0.545315	0.978402	0.621816
0	C	0.545694	0.993216	0.121244
0	C	0.468299	0.00655249	0.40042
0	H	0.938105	0.510431	0.875722
0	H	0.0752582	0.49555	0.64846
0	H	0.075566	0.472384	0.146616
0	H	0.938403	0.490187	0.373818
0	H	0.438172	0.0104542	0.875827
0	H	0.575185	0.995458	0.648385
0	H	0.575538	0.97217	0.14655
0	H	0.438418	0.990392	0.373852
0	C	0.990669	0.654953	0.895541
0	C	0.0227865	0.644433	0.627525
0	C	0.0230058	0.327915	0.126818
0	C	0.990778	0.339821	0.394836
0	C	0.49075	0.154682	0.896106
0	C	0.522715	0.144137	0.626954
0	C	0.522938	0.828188	0.126276
0	C	0.490808	0.84005	0.395371
0	H	0.978402	0.802412	0.866066
0	H	0.0351833	0.788941	0.658322
0	H	0.035272	0.180349	0.15626
0	H	0.978306	0.195292	0.364106
0	H	0.478573	0.30308	0.86696
0	H	0.535012	0.289601	0.657369
0	H	0.53509	0.679567	0.155353
0	H	0.4784	0.694566	0.365026
0	C	0.0289464	0.631108	0.928365
0	C	0.984451	0.624601	0.593419
0	C	0.984729	0.35184	0.0940386
0	C	0.029128	0.358872	0.428949
0	C	0.52895	0.130044	0.928972
0	C	0.484462	0.123648	0.592813
0	C	0.484744	0.853099	0.0934492
0	C	0.529074	0.859877	0.429515
0	H	0.0467361	0.757871	0.923733
0	H	0.966846	0.752111	0.598254
0	H	0.96694	0.225099	0.0986889
0	H	0.046663	0.23072	0.424162
0	H	0.546913	0.25652	0.924702
0	H	0.466681	0.251081	0.597179
0	H	0.466763	0.726873	0.0977218
0	H	0.546766	0.731715	0.425194
0	C	0.0445503	0.442334	0.967184
0	C	0.968635	0.439159	0.55328
0	C	0.969124	0.540594	0.0552068
0	C	0.0450429	0.544325	0.469029
0	C	0.544453	0.940505	0.967352
0	C	0.468733	0.937368	0.553156
0	C	0.469277	0.0426828	0.0550745
0	C	0.544887	0.0462436	0.469093
0	C	0.0853178	0.4249	0.00258375
0	C	0.927846	0.422707	0.517174
0	C	0.928356	0.557961	0.0198021
0	C	0.0858512	0.560048	0.505124
0	C	0.585223	0.923312	0.00240632
0	C	0.427937	0.921144	0.517425
0	C	0.428515	0.0595748	0.0199557
0	C	0.585702	0.061759	0.504837
0	C	0.102225	0.19238	0.012892
0	C	0.910961	0.190333	0.507604
0	C	0.911437	0.790448	0.00945558
0	C	0.102819	0.792243	0.514732
0	C	0.602123	0.690951	0.0126136
0	C	0.411116	0.688746	0.508077
0	C	0.411572	0.291679	0.00969256
0	C	0.602693	0.293738	0.514423
0	H	0.0824759	0.0736934	0.976291
0	H	0.931057	0.071697	0.543784
0	H	0.931186	0.909261	0.0460127
0	H	0.0827593	0.910921	0.478534
0	H	0.582403	0.572245	0.975953
0	H	0.431143	0.569363	0.544213
0	H	0.431326	0.410127	0.0463491
0	H	0.58267	0.412536	0.478145
0	C	0.1393	0.192277	0.00969712
0	C	0.874283	0.189234	0.512266
0	C	0.874377	0.790644	0.0127054
0	C	0.13952	0.793041	0.510158
0	C	0.639213	0.691783	0.00943651
0	C	0.374385	0.688528	0.512592
0	C	0.374495	0.291031	0.0129521
0	C	0.63943	0.293565	0.509879
0	H	0.150473	0.368428	0.017879
0	H	0.862963	0.365016	0.504203
0	H	0.863199	0.614513	0.0045397
0	H	0.150808	0.617154	0.518196
0	H	0.650198	0.8684	0.0174077
0	H	0.363229	0.864808	0.504615
0	H	0.363522	0.114352	0.00503302
0	H	0.650522	0.117169	0.517718
0	C	0.16507	0.0528753	0.0671508
0	C	0.848204	0.049682	0.455012
0	C	0.848603	0.930051	0.95526
0	C	0.165594	0.93249	0.567456
0	C	0.665035	0.55275	0.0669134
0	C	0.34826	0.549549	0.45527
0	C	0.34867	0.430117	0.955481
0	C	0.665538	0.432615	0.567211
0	C	0.150278	0.00941536	0.10679
0	C	0.862324	0.0081586	0.414278
0	C	0.863369	0.973351	0.915572
0	C	0.151426	0.974178	0.608116
0	C	0.650211	0.508813	0.106479
0	C	0.36244	0.507626	0.414637
0	C	0.363479	0.474054	0.915892
0	C	0.651329	0.474819	0.607788
0	C	0.111799	0.0935824	0.0791367
0	C	0.900771	0.0920092	0.441077
0	C	0.901835	0.888999	0.943174
0	C	0.112961	0.890636	0.581233
0	C	0.61171	0.592325	0.078851
0	C	0.400917	0.590803	0.441497
0	C	0.401977	0.390419	0.943468
0	C	0.612836	0.392088	0.580905
0	O	0.105034	0.589568	0.0218411
0	O	0.908106	0.586898	0.49694
0	O	0.908655	0.393233	0.000531176
0	O	0.105503	0.395545	0.525283
0	O	0.604903	0.0880382	0.0212405
0	O	0.408168	0.0851612	0.497428
0	O	0.408887	0.894653	0.0011654
0	O	0.605336	0.897237	0.524544
0	O	0.0905927	0.087067	0.101321
0	O	0.921479	0.0860718	0.417875
0	O	0.922999	0.895221	0.9209
0	O	0.0921728	0.896988	0.60426
0	O	0.590525	0.585589	0.101089
0	O	0.421692	0.585003	0.418394
0	O	0.423123	0.397216	0.921159
0	O	0.592068	0.398485	0.604015
