#******************************************
#
# CIF file created by Zeo++
# Zeo++ is an open source package to
# analyze microporous materials
#
#*******************************************

_cell_length_a		21.8967(0)
_cell_length_b		16.2429(0)
_cell_length_c		34.2957(0)
_cell_angle_alpha		90(0)
_cell_angle_beta		90(0)
_cell_angle_gamma		116.853(0)

_symmetry_space_group_name_H-M		'P1'
_symmetry_Int_Tables_number		1
_symmetry_cell_setting		Monoclinic

loop_
_symmetry_equiv_pos_as_xyz
'+x,+y,+z'

loop_
_atom_site_label
_atom_site_type_symbol
_atom_site_fract_x
_atom_site_fract_y
_atom_site_fract_z
0	C	0.532187	0.0759756	0.778394
0	C	0.769401	0.645419	0.784162
0	C	0.365894	0.449819	0.758789
0	C	0.272123	0.016104	0.26817
0	C	0.996032	0.45476	0.276822
0	C	0.453993	0.656824	0.269021
0	C	0.0153587	0.738468	0.0817687
0	C	0.439558	0.0126407	0.111878
0	C	0.235939	0.460074	0.0926943
0	C	0.799186	0.395696	0.580153
0	C	0.330354	0.110065	0.590742
0	C	0.605961	0.690162	0.600964
0	O	0.539055	0.0760468	0.744383
0	O	0.755369	0.645635	0.75104
0	O	0.373939	0.451264	0.725138
0	O	0.269348	0.0173998	0.233939
0	O	0.996606	0.457843	0.242494
0	O	0.45244	0.658564	0.235043
0	O	0.0274027	0.744612	0.115417
0	O	0.437301	0.00339826	0.145514
0	O	0.235301	0.470081	0.126422
0	O	0.793858	0.402298	0.614036
0	O	0.320793	0.110388	0.624264
0	O	0.621623	0.684795	0.633109
0	C	0.56086	0.076708	0.818353
0	C	0.789002	0.698339	0.822111
0	C	0.308798	0.392706	0.790512
0	C	0.238492	0.0165898	0.306623
0	C	0.990858	0.399039	0.312944
0	C	0.501297	0.705305	0.305177
0	C	0.99485	0.777852	0.0471858
0	C	0.490134	0.0200586	0.0760535
0	C	0.196189	0.402656	0.0570682
0	C	0.810501	0.342122	0.547323
0	C	0.305158	0.121645	0.549875
0	C	0.629068	0.740951	0.561621
0	C	0.607803	0.173232	0.833762
0	C	0.729205	0.694887	0.845783
0	C	0.312738	0.309283	0.808468
0	C	0.186906	0.922856	0.32182
0	C	0.0576057	0.409531	0.330848
0	C	0.494002	0.786746	0.323616
0	C	0.0529677	0.854817	0.0255058
0	C	0.474499	0.924002	0.0606937
0	C	0.147892	0.433355	0.0357987
0	C	0.747096	0.261427	0.531511
0	C	0.339465	0.221769	0.533733
0	C	0.66643	0.706293	0.533005
0	O	0.667598	0.201917	0.840477
0	O	0.719293	0.75984	0.853738
0	O	0.263647	0.236706	0.814177
0	O	0.126774	0.898588	0.325891
0	O	0.0763995	0.350589	0.331585
0	O	0.541534	0.854457	0.335884
0	O	0.0610206	0.932874	0.0224123
0	O	0.51675	0.897031	0.0567427
0	O	0.0909907	0.380688	0.0262233
0	O	0.73755	0.182484	0.530339
0	O	0.307333	0.256774	0.51922
0	O	0.716944	0.756477	0.515627
0	C	0.565309	0.227218	0.837541
0	C	0.681802	0.593517	0.856816
0	C	0.387015	0.338156	0.821396
0	C	0.22521	0.865659	0.331565
0	C	0.096757	0.507694	0.34792
0	C	0.417202	0.75869	0.328596
0	C	0.101491	0.818067	0.00886409
0	C	0.39797	0.873233	0.0497913
0	C	0.187987	0.53703	0.0269027
0	C	0.695591	0.296042	0.517722
0	C	0.417535	0.25817	0.536297
0	C	0.624229	0.600944	0.529456
0	C	0.490177	0.156941	0.83018
0	C	0.717837	0.536322	0.842821
0	C	0.421091	0.443939	0.823549
0	C	0.301634	0.927598	0.322683
0	C	0.0557413	0.560253	0.336388
0	C	0.381037	0.652851	0.327058
0	C	0.0684655	0.714051	0.0181917
0	C	0.374514	0.948903	0.047079
0	C	0.264064	0.561718	0.0324492
0	C	0.734204	0.402168	0.518576
0	C	0.429061	0.171896	0.540934
0	C	0.552235	0.578188	0.545067
0	O	0.441071	0.168604	0.838244
0	O	0.700462	0.456507	0.850219
0	O	0.471677	0.493304	0.841105
0	O	0.347209	0.90826	0.330339
0	O	0.0717485	0.63959	0.344234
0	O	0.323939	0.602462	0.337411
0	O	0.0877211	0.659951	0.00646997
0	O	0.328106	0.948903	0.0286456
0	O	0.312368	0.630918	0.0220042
0	O	0.714585	0.454463	0.505143
0	O	0.480512	0.166033	0.533648
0	O	0.501068	0.507621	0.540192
0	C	0.48721	0.0698011	0.812543
0	C	0.780235	0.596942	0.818618
0	C	0.377411	0.479191	0.799811
0	C	0.310566	0.0174196	0.304488
0	C	0.990931	0.495887	0.315003
0	C	0.429979	0.619286	0.308359
0	C	0.00578798	0.688606	0.0438472
0	C	0.42371	0.0315886	0.0721862
0	C	0.270194	0.48314	0.0540189
0	C	0.802096	0.432171	0.539719
0	C	0.362896	0.0918143	0.555896
0	C	0.555693	0.660586	0.568318
0	C	0.421709	0.982298	0.818137
0	C	0.839168	0.572786	0.819085
0	C	0.385388	0.573232	0.811559
0	C	0.376441	0.102215	0.313138
0	C	0.927814	0.508313	0.323156
0	C	0.417955	0.522665	0.318522
0	C	0.948144	0.592569	0.0387328
0	C	0.417635	0.120336	0.0668609
0	C	0.333168	0.470779	0.0456025
0	C	0.860146	0.522716	0.527239
0	C	0.356635	0.995946	0.550418
0	C	0.492681	0.675709	0.568769
0	C	0.367306	0.971151	0.788918
0	C	0.849918	0.541729	0.779517
0	C	0.444124	0.646947	0.789641
0	C	0.435081	0.112011	0.287604
0	C	0.92059	0.572937	0.294229
0	C	0.36728	0.453908	0.290827
0	C	0.929723	0.539836	0.0764216
0	C	0.371644	0.125196	0.098519
0	C	0.384281	0.505992	0.0782596
0	C	0.891458	0.586977	0.560985
0	C	0.379889	0.966726	0.58686
0	C	0.44103	0.61764	0.598686
0	O	0.306022	0.228343	0.738844
0	O	0.65392	0.309569	0.726198
0	O	0.55136	0.533615	0.747819
0	O	0.519447	0.867696	0.260883
0	O	0.134016	0.817676	0.234575
0	O	0.148078	0.489684	0.243864
0	O	0.0895657	0.432	0.112086
0	O	0.226319	0.843253	0.110513
0	O	0.456459	0.814307	0.140094
0	O	0.754785	0.731996	0.601072
0	O	0.601806	0.202002	0.623768
0	O	0.310998	0.269239	0.59699
0	C	0.304695	0.152362	0.736575
0	C	0.70917	0.361909	0.712329
0	C	0.560137	0.607198	0.734002
0	C	0.534659	0.945623	0.248871
0	C	0.0720049	0.775447	0.230806
0	C	0.191342	0.463082	0.238227
0	C	0.049234	0.437807	0.135147
0	C	0.228587	0.883125	0.141103
0	C	0.452813	0.737004	0.139088
0	C	0.800409	0.736357	0.622781
0	C	0.559883	0.150521	0.647016
0	C	0.291573	0.312237	0.618814
0	C	0.251511	0.0723006	0.758974
0	C	0.76943	0.340259	0.71486
0	C	0.608366	0.697443	0.753124
0	C	0.568593	0.0271489	0.275902
0	C	0.0258157	0.806166	0.25246
0	C	0.184871	0.376251	0.257594
0	C	0.973491	0.372598	0.132179
0	C	0.203951	0.956556	0.14304
0	C	0.509698	0.722165	0.121155
0	C	0.874369	0.78497	0.610099
0	C	0.541737	0.0489753	0.647837
0	C	0.278857	0.390103	0.603404
0	C	0.266657	0.990267	0.765676
0	C	0.834718	0.420958	0.730251
0	C	0.567648	0.740613	0.77383
0	C	0.541448	0.0987754	0.273008
0	C	0.956376	0.728408	0.264504
0	C	0.251558	0.368693	0.261524
0	C	0.930756	0.423484	0.123358
0	C	0.26339	0.0533975	0.137353
0	C	0.491923	0.623395	0.109009
0	C	0.904593	0.71718	0.604256
0	C	0.466772	0.986409	0.63768
0	C	0.331062	0.484838	0.618386
0	C	0.325695	0.0106301	0.792676
0	C	0.824403	0.452804	0.769658
0	C	0.509757	0.670572	0.797379
0	C	0.47763	0.075945	0.29602
0	C	0.963212	0.663172	0.293086
0	C	0.301484	0.436339	0.289432
0	C	0.949715	0.475739	0.0856005
0	C	0.307303	0.0594455	0.103037
0	C	0.439426	0.58835	0.0772314
0	C	0.87352	0.652811	0.570653
0	C	0.444371	0.010056	0.599873
0	C	0.387051	0.53766	0.589859
0	C	0.983753	0.821257	0.687763
0	C	0.16058	0.368175	0.695606
0	C	0.454366	0.825654	0.72534
0	C	0.710296	0.27145	0.260127
0	C	0.642655	0.750383	0.215029
0	C	0.339634	0.257203	0.223277
0	C	0.65348	0.152324	0.15877
0	C	0.2133	0.24692	0.14141
0	C	0.673242	0.69128	0.108901
0	C	0.107714	0.982735	0.608514
0	C	0.592756	0.871773	0.645513
0	C	0.123359	0.457855	0.597588
0	C	0.94173	0.769402	0.711869
0	C	0.174656	0.342565	0.726253
0	C	0.409738	0.81354	0.750144
0	C	0.729227	0.310879	0.292027
0	C	0.634979	0.766523	0.248918
0	C	0.379234	0.260944	0.250013
0	C	0.635636	0.117712	0.126605
0	C	0.174814	0.244252	0.115161
0	C	0.684701	0.673452	0.0753017
0	C	0.14279	0.0307996	0.581944
0	C	0.63449	0.886664	0.619546
0	C	0.113551	0.486423	0.565697
0	C	0.0282477	0.87664	0.661662
0	C	0.14727	0.400101	0.66246
0	C	0.501311	0.840157	0.698194
0	C	0.690982	0.230813	0.225617
0	C	0.651646	0.729076	0.178497
0	C	0.29732	0.253277	0.195008
0	C	0.672353	0.192789	0.193646
0	C	0.257446	0.250572	0.168966
0	C	0.662595	0.711157	0.14504
0	C	0.0672571	0.926471	0.636218
0	C	0.544647	0.853392	0.672778
0	C	0.134585	0.428021	0.631451
0	C	0.354772	0.138194	0.711406
0	C	0.719721	0.448333	0.6916
0	C	0.523863	0.613016	0.697986
0	C	0.521828	0.961517	0.207663
0	C	0.0408038	0.694571	0.20388
0	C	0.250388	0.514839	0.211522
0	C	0.0720833	0.506963	0.167194
0	C	0.25541	0.86255	0.177718
0	C	0.391594	0.656977	0.155878
0	C	0.785252	0.694178	0.662423
0	C	0.525351	0.184997	0.675649
0	C	0.278159	0.287212	0.660749
0	C	0.58669	0.29918	0.805062
0	C	0.614053	0.560933	0.835198
0	C	0.424405	0.309927	0.790644
0	C	0.198643	0.781373	0.305142
0	C	0.168412	0.555525	0.330705
0	C	0.391585	0.793637	0.293908
0	C	0.170794	0.866212	0.029095
0	C	0.356382	0.808677	0.0827617
0	C	0.168175	0.590382	0.056839
0	C	0.637164	0.264731	0.547201
0	C	0.444132	0.316358	0.573269
0	C	0.656366	0.55561	0.556022
0	C	0.574018	0.271755	0.87805
0	C	0.671394	0.584918	0.901342
0	C	0.388851	0.295964	0.86128
0	C	0.215806	0.840006	0.375244
0	C	0.0976029	0.501835	0.392915
0	C	0.402432	0.795316	0.367028
0	C	0.108098	0.832357	0.964306
0	C	0.387545	0.819252	0.0115552
0	C	0.174784	0.559211	0.984991
0	C	0.668511	0.259978	0.47662
0	C	0.455728	0.314584	0.500348
0	C	0.619848	0.567518	0.487058
0	C	0.56436	0.20646	0.910962
0	C	0.735642	0.602555	0.922884
0	C	0.356296	0.324981	0.893223
0	C	0.246087	0.924756	0.4002
0	C	0.0272712	0.471255	0.409213
0	C	0.420043	0.758069	0.402843
0	C	0.0404115	0.786905	0.943933
0	C	0.429831	0.873635	0.977933
0	C	0.188134	0.503147	0.954651
0	C	0.722581	0.290965	0.445751
0	C	0.420351	0.282058	0.462103
0	C	0.604747	0.624915	0.4582
0	C	0.512524	0.175888	0.936644
0	C	0.745696	0.538517	0.942797
0	C	0.389836	0.380119	0.923191
0	C	0.296317	0.945592	0.426471
0	C	0.00562612	0.524278	0.429152
0	C	0.374584	0.696966	0.42766
0	C	0.0208512	0.714806	0.919485
0	C	0.404833	0.890635	0.944784
0	C	0.240555	0.53539	0.929296
0	C	0.728375	0.349468	0.416606
0	C	0.444331	0.252257	0.432028
0	C	0.544413	0.601783	0.440607
0	C	0.453495	0.198285	0.934259
0	C	0.694557	0.438729	0.944108
0	C	0.465894	0.42551	0.927817
0	C	0.328832	0.884931	0.436548
0	C	0.0506383	0.623464	0.438842
0	C	0.298788	0.654517	0.421988
0	C	0.0637639	0.666653	0.910931
0	C	0.330848	0.866327	0.938919
0	C	0.296083	0.632371	0.929203
0	C	0.68477	0.398601	0.413704
0	C	0.505815	0.235106	0.434237
0	C	0.479795	0.516605	0.448824
0	C	0.510347	0.115873	0.970359
0	C	0.809846	0.563288	0.965724
0	C	0.351322	0.399348	0.955131
0	C	0.325624	0.0359641	0.447696
0	C	0.933195	0.486292	0.442898
0	C	0.397831	0.666751	0.463637
0	C	0.953599	0.677219	0.898758
0	C	0.450367	0.934925	0.910718
0	C	0.24686	0.473869	0.898607
0	C	0.779322	0.3698	0.384644
0	C	0.410478	0.234874	0.392987
0	C	0.538227	0.66217	0.409343
0	C	0.571687	0.999231	0.833909
0	C	0.856543	0.778752	0.828552
0	C	0.240789	0.385396	0.784453
0	C	0.22813	0.0955113	0.320771
0	C	0.929434	0.311025	0.321676
0	C	0.569434	0.710979	0.305224
0	C	0.926316	0.77576	0.0446375
0	C	0.560029	0.0911881	0.0743079
0	C	0.174858	0.303365	0.0554022
0	C	0.876738	0.338205	0.54293
0	C	0.234213	0.0665767	0.537878
0	C	0.64626	0.839055	0.558736
0	O	0.592474	0.0174713	0.872472
0	O	0.868888	0.787491	0.868507
0	O	0.232623	0.451845	0.800283
0	O	0.227618	0.0924227	0.361188
0	O	0.921784	0.305001	0.361834
0	O	0.5717	0.638687	0.319774
0	O	0.910129	0.775798	0.00568544
0	O	0.565704	0.168183	0.0596586
0	O	0.20305	0.279935	0.0272773
0	O	0.887217	0.330884	0.503613
0	O	0.225751	0.998142	0.515637
0	O	0.620352	0.858029	0.528381
0	C	0.558434	0.921562	0.814814
0	C	0.89955	0.829724	0.800845
0	C	0.190539	0.306534	0.760663
0	C	0.221643	0.157268	0.297971
0	C	0.888442	0.251632	0.295289
0	C	0.628	0.793279	0.287782
0	C	0.887072	0.770485	0.0751503
0	C	0.617925	0.0747427	0.0891101
0	C	0.127344	0.241833	0.0858724
0	C	0.918484	0.344588	0.572279
0	C	0.180667	0.0932079	0.551484
0	C	0.6862	0.903734	0.590622
0	C	0.647111	0.997119	0.887284
0	C	0.901291	0.878574	0.886745
0	C	0.171571	0.474498	0.798401
0	C	0.19773	0.140379	0.384565
0	C	0.889809	0.215715	0.381713
0	C	0.634516	0.620993	0.324211
0	C	0.870704	0.824098	0.992811
0	C	0.631351	0.257073	0.0518402
0	C	0.18758	0.180841	0.0158188
0	C	0.928821	0.286399	0.490135
0	C	0.160207	0.931079	0.494418
0	C	0.633575	0.955071	0.514752
0	C	0.619307	0.894859	0.896151
0	C	0.978059	0.925322	0.879416
0	C	0.18494	0.537023	0.763896
0	C	0.244767	0.243431	0.384955
0	C	0.812791	0.170231	0.375963
0	C	0.656102	0.604437	0.284735
0	C	0.795703	0.770355	0.00289944
0	C	0.661208	0.303573	0.0897891
0	C	0.214968	0.141245	0.0467929
0	C	0.00425881	0.34737	0.497157
0	C	0.112107	0.865472	0.523783
0	C	0.603965	0.996219	0.543725
0	C	0.707931	0.0348361	0.859769
0	C	0.86546	0.935636	0.874586
0	C	0.103777	0.389956	0.799628
0	C	0.124732	0.114112	0.372114
0	C	0.924404	0.156935	0.369715
0	C	0.68818	0.697224	0.348003
0	C	0.90426	0.922857	0.00784026
0	C	0.67781	0.236066	0.0257251
0	C	0.11268	0.128003	0.00679926
0	C	0.901758	0.190177	0.507599
0	C	0.133179	0.984981	0.470441
0	C	0.70875	0.00801108	0.506428
0	H	0.402348	0.980813	0.848277
0	H	0.829404	0.518429	0.841418
0	H	0.394266	0.58272	0.843589
0	H	0.389493	0.101984	0.344637
0	H	0.930127	0.534175	0.353461
0	H	0.399011	0.506243	0.349063
0	H	0.962652	0.555269	0.0161494
0	H	0.39632	0.121299	0.0374767
0	H	0.356799	0.507202	0.017874
0	H	0.841425	0.555351	0.504729
0	H	0.388291	0.995384	0.525049
0	H	0.469422	0.661675	0.539095
0	H	0.432193	0.921133	0.816081
0	H	0.886735	0.633693	0.828823
0	H	0.337308	0.578783	0.806186
0	H	0.368621	0.165323	0.309244
0	H	0.881392	0.440004	0.322578
0	H	0.466959	0.517711	0.318032
0	H	0.902573	0.5974	0.026619
0	H	0.468709	0.181324	0.0676283
0	H	0.318455	0.396698	0.0400531
0	H	0.899987	0.508702	0.512077
0	H	0.30326	0.946221	0.542862
0	H	0.506949	0.749685	0.574507
0	H	0.362738	0.924412	0.764836
0	H	0.879829	0.597775	0.759298
0	H	0.429126	0.680381	0.766358
0	H	0.44219	0.155564	0.261981
0	H	0.877653	0.540138	0.274156
0	H	0.387879	0.418255	0.271848
0	H	0.89852	0.558027	0.0960628
0	H	0.395252	0.183453	0.118469
0	H	0.373673	0.45883	0.102811
0	H	0.930053	0.575964	0.577157
0	H	0.340101	0.908773	0.602361
0	H	0.449478	0.647499	0.62786
0	H	0.201831	0.0484306	0.74321
0	H	0.778987	0.320154	0.68531
0	H	0.643004	0.746393	0.731111
0	H	0.624504	0.0618916	0.269012
0	H	0.0183817	0.857307	0.234111
0	H	0.147346	0.316312	0.240496
0	H	0.955793	0.333687	0.159966
0	H	0.179491	0.953914	0.171818
0	H	0.553256	0.746645	0.14252
0	H	0.905327	0.836784	0.632587
0	H	0.55292	0.030557	0.677507
0	H	0.226252	0.378342	0.611938
0	H	0.242465	0.0986715	0.78739
0	H	0.755351	0.278271	0.733439
0	H	0.642163	0.685653	0.774086
0	H	0.565417	0.00225995	0.306423
0	H	0.0535722	0.846278	0.278855
0	H	0.159566	0.368314	0.28661
0	H	0.964971	0.319997	0.109376
0	H	0.16376	0.942567	0.120851
0	H	0.531525	0.770321	0.096025
0	H	0.879403	0.824836	0.583036
0	H	0.576099	0.0352217	0.627991
0	H	0.277864	0.38849	0.571
0	H	0.22029	0.932723	0.778616
0	H	0.875953	0.399018	0.732282
0	H	0.602645	0.797326	0.793165
0	H	0.582322	0.166279	0.283957
0	H	0.925469	0.759362	0.27822
0	H	0.23961	0.297439	0.27143
0	H	0.875684	0.372292	0.12256
0	H	0.242595	0.104387	0.134571
0	H	0.540018	0.622069	0.0984163
0	H	0.961009	0.757574	0.600104
0	H	0.458749	0.913501	0.637196
0	H	0.303137	0.526287	0.624946
0	H	0.273783	0.962727	0.737318
0	H	0.853754	0.47842	0.708789
0	H	0.548675	0.774467	0.752016
0	H	0.535331	0.11321	0.241976
0	H	0.926841	0.691469	0.238363
0	H	0.27544	0.373604	0.23239
0	H	0.934945	0.470337	0.147984
0	H	0.294444	0.0750079	0.164697
0	H	0.476536	0.577345	0.134847
0	H	0.899903	0.678216	0.631758
0	H	0.433292	0.987992	0.661794
0	H	0.352481	0.478274	0.646897
0	H	0.331696	0.0584593	0.816481
0	H	0.794148	0.397575	0.790032
0	H	0.525234	0.638045	0.82088
0	H	0.469043	0.0304963	0.321053
0	H	0.00608466	0.694812	0.313603
0	H	0.280546	0.470413	0.30907
0	H	0.981014	0.457781	0.0658458
0	H	0.283867	0.00315793	0.0817873
0	H	0.449681	0.635464	0.0525568
0	H	0.834774	0.663142	0.554202
0	H	0.484055	0.0669268	0.583425
0	H	0.380423	0.507849	0.560632
0	H	0.384262	0.110141	0.727989
0	H	0.74855	0.50943	0.710142
0	H	0.468213	0.570257	0.70041
0	H	0.483176	0.986922	0.205039
0	H	0.00862809	0.630629	0.219926
0	H	0.299426	0.543811	0.227197
0	H	0.0317733	0.524018	0.177848
0	H	0.292284	0.925976	0.192509
0	H	0.362468	0.605562	0.13359
0	H	0.778622	0.6229	0.661756
0	H	0.492841	0.210681	0.661105
0	H	0.316544	0.338433	0.680299
0	H	0.391274	0.202787	0.697512
0	H	0.670816	0.448458	0.684542
0	H	0.540563	0.586824	0.672593
0	H	0.503548	0.898207	0.189762
0	H	0.0801743	0.683041	0.1883
0	H	0.245531	0.57144	0.196606
0	H	0.117022	0.571099	0.159145
0	H	0.279757	0.817402	0.173184
0	H	0.356671	0.679446	0.170007
0	H	0.738029	0.691434	0.674788
0	H	0.564254	0.243875	0.692457
0	H	0.278205	0.220837	0.667246
0	H	0.328759	0.0885878	0.687748
0	H	0.748829	0.45806	0.664371
0	H	0.532935	0.683814	0.690872
0	H	0.568533	0.0134581	0.193391
0	H	0.00829872	0.703824	0.181568
0	H	0.254002	0.469287	0.188688
0	H	0.0876539	0.480689	0.193439
0	H	0.213339	0.828284	0.199227
0	H	0.406894	0.620448	0.177915
0	H	0.826718	0.730622	0.683759
0	H	0.494585	0.132873	0.697291
0	H	0.228413	0.281587	0.670593
0	H	0.639892	0.352826	0.809387
0	H	0.588043	0.603614	0.842205
0	H	0.406135	0.234463	0.791085
0	H	0.142368	0.741789	0.307772
0	H	0.200275	0.522731	0.340136
0	H	0.413597	0.869903	0.294757
0	H	0.193349	0.941522	0.0260363
0	H	0.351906	0.738992	0.0787101
0	H	0.116913	0.58455	0.0503163
0	H	0.613415	0.189659	0.552214
0	H	0.436476	0.379151	0.571428
0	H	0.702508	0.556802	0.542264
0	H	0.553955	0.334426	0.804037
0	H	0.577945	0.489747	0.843139
0	H	0.480136	0.341175	0.796331
0	H	0.22028	0.734265	0.312824
0	H	0.19515	0.628623	0.339375
0	H	0.335815	0.767871	0.294783
0	H	0.20823	0.845496	0.0167138
0	H	0.303701	0.801186	0.0843439
0	H	0.203502	0.664518	0.0565555
0	H	0.595662	0.280202	0.53741
0	H	0.499065	0.339129	0.577444
0	H	0.621471	0.482799	0.561555
0	H	0.585991	0.270579	0.775824
0	H	0.618996	0.561666	0.803195
0	H	0.417275	0.328542	0.760768
0	H	0.208776	0.799476	0.274097
0	H	0.167345	0.553745	0.298562
0	H	0.40628	0.776925	0.265507
0	H	0.168844	0.850822	0.0605601
0	H	0.379457	0.831249	0.111841
0	H	0.165248	0.564402	0.0867917
0	H	0.653274	0.295821	0.576284
0	H	0.417029	0.280652	0.599821
0	H	0.67366	0.59134	0.584188
0	H	0.626992	0.330818	0.880128
0	H	0.652981	0.635118	0.911229
0	H	0.36237	0.219076	0.858497
0	H	0.160051	0.799245	0.381309
0	H	0.117629	0.452681	0.401578
0	H	0.431605	0.872189	0.366762
0	H	0.132684	0.907533	0.957941
0	H	0.400587	0.761042	0.0170481
0	H	0.120483	0.547304	0.982814
0	H	0.642291	0.183274	0.477442
0	H	0.46449	0.387909	0.504337
0	H	0.6694	0.567626	0.479227
0	H	0.538851	0.30379	0.88025
0	H	0.629351	0.51572	0.908195
0	H	0.442895	0.312479	0.868019
0	H	0.238821	0.792961	0.381421
0	H	0.134551	0.569786	0.404704
0	H	0.347788	0.781674	0.366825
0	H	0.144208	0.806975	0.953233
0	H	0.331957	0.785148	0.00453788
0	H	0.20562	0.634553	0.980041
0	H	0.627947	0.280829	0.469496
0	H	0.507836	0.318579	0.500075
0	H	0.581401	0.493672	0.485592
0	H	0.60496	0.185149	0.91316
0	H	0.775146	0.674112	0.921735
0	H	0.300673	0.294477	0.891244
0	H	0.225307	0.973574	0.394292
0	H	0.991904	0.399256	0.402704
0	H	0.474891	0.787422	0.408418
0	H	0.0061584	0.817493	0.950302
0	H	0.484418	0.894282	0.981
0	H	0.149257	0.431348	0.953556
0	H	0.757362	0.2599	0.447711
0	H	0.373681	0.290162	0.459145
0	H	0.649349	0.689783	0.45115
0	H	0.413819	0.162026	0.956066
0	H	0.713416	0.395748	0.959505
0	H	0.48418	0.476444	0.951486
0	H	0.344512	0.890924	0.467191
0	H	0.0237305	0.655065	0.455235
0	H	0.270534	0.596657	0.441847
0	H	0.0350587	0.600759	0.895789
0	H	0.322836	0.904702	0.914782
0	H	0.336151	0.644857	0.907523
0	H	0.697659	0.44433	0.388292
0	H	0.499469	0.174922	0.416844
0	H	0.435961	0.532088	0.452621
0	H	0.42861	0.179314	0.905389
0	H	0.680862	0.40996	0.91419
0	H	0.491812	0.462162	0.900941
0	H	0.375208	0.903532	0.418789
0	H	0.0706327	0.664172	0.41195
0	H	0.284094	0.627716	0.39207
0	H	0.0839803	0.651377	0.937972
0	H	0.30842	0.880871	0.965205
0	H	0.321948	0.651638	0.957826
0	H	0.690754	0.440891	0.439928
0	H	0.517452	0.22278	0.46429
0	H	0.482267	0.48026	0.475646
0	H	0.470085	0.272969	0.938094
0	H	0.646967	0.429171	0.958404
0	H	0.48466	0.373965	0.934092
0	H	0.295058	0.811068	0.430908
0	H	0.0945976	0.630817	0.456608
0	H	0.279546	0.706001	0.426882
0	H	0.107691	0.709346	0.892419
0	H	0.300761	0.792201	0.932199
0	H	0.276319	0.682885	0.923296
0	H	0.629902	0.349525	0.411212
0	H	0.551955	0.294405	0.42263
0	H	0.466787	0.466328	0.424941
0	H	0.520538	0.154144	0.997938
0	H	0.798066	0.550396	0.996983
0	H	0.362826	0.377825	0.983469
0	H	0.313804	0.0267763	0.478958
0	H	0.929879	0.476688	0.475034
0	H	0.365094	0.661251	0.488823
0	H	0.959706	0.672176	0.867102
0	H	0.435755	0.887878	0.885545
0	H	0.242069	0.497686	0.869234
0	H	0.753898	0.354082	0.355501
0	H	0.444855	0.282544	0.370943
0	H	0.536473	0.63165	0.380467
0	H	0.547199	0.0877508	0.967373
0	H	0.846984	0.636784	0.963279
0	H	0.295628	0.363534	0.951207
0	H	0.30726	0.0839686	0.436257
0	H	0.899913	0.417873	0.430648
0	H	0.450576	0.713934	0.471941
0	H	0.926545	0.719948	0.902259
0	H	0.504927	0.954854	0.916022
0	H	0.207999	0.401873	0.901283
0	H	0.807685	0.328384	0.386111
0	H	0.36286	0.242665	0.39257
0	H	0.580508	0.732277	0.409419
0	H	0.45957	0.0559664	0.973016
0	H	0.836007	0.522789	0.956446
0	H	0.366048	0.473567	0.95706
0	H	0.381791	0.0714302	0.445068
0	H	0.910117	0.531701	0.435442
0	H	0.395444	0.597815	0.459428
0	H	0.91866	0.607813	0.909266
0	H	0.448311	0.998502	0.90144
0	H	0.297177	0.474134	0.899876
0	H	0.816896	0.442744	0.384008
0	H	0.396571	0.164359	0.382231
0	H	0.490679	0.669068	0.412047
0	H	0.53897	0.907415	0.785235
0	H	0.889793	0.816527	0.769862
0	H	0.213339	0.2585	0.752507
0	H	0.224714	0.155157	0.266437
0	H	0.896303	0.261838	0.264259
0	H	0.616132	0.85427	0.286984
0	H	0.901584	0.769291	0.105065
0	H	0.602429	0.99851	0.0915166
0	H	0.0926846	0.270657	0.0972745
0	H	0.907754	0.351464	0.602439
0	H	0.205615	0.16659	0.562621
0	H	0.727137	0.886292	0.602126
0	H	0.565606	0.865432	0.827388
0	H	0.948843	0.887436	0.80653
0	H	0.143797	0.262154	0.777877
0	H	0.214606	0.21535	0.308205
0	H	0.84287	0.189297	0.302464
0	H	0.676436	0.815878	0.304825
0	H	0.836225	0.766412	0.0725198
0	H	0.662995	0.102939	0.0688971
0	H	0.0932689	0.170361	0.0755142
0	H	0.967979	0.34523	0.568494
0	H	0.146049	0.0919328	0.527159
0	H	0.713057	0.977762	0.581644
0	H	0.658368	0.0386248	0.914707
0	H	0.889736	0.855255	0.918097
0	H	0.184586	0.512656	0.826913
0	H	0.198595	0.108252	0.413557
0	H	0.903645	0.241966	0.412524
0	H	0.606462	0.555765	0.341355
0	H	0.879425	0.821945	0.960435
0	H	0.60437	0.291303	0.0357733
0	H	0.22038	0.202244	0.989041
0	H	0.915973	0.282855	0.458158
0	H	0.187022	0.899776	0.476175
0	H	0.601809	0.929831	0.48772
0	H	0.657453	0.880111	0.911233
0	H	0.00411424	0.98712	0.897399
0	H	0.14796	0.565667	0.762461
0	H	0.230665	0.278512	0.40794
0	H	0.786455	0.112991	0.396188
0	H	0.686892	0.566401	0.286789
0	H	0.764834	0.800176	0.98944
0	H	0.690329	0.378965	0.0861893
0	H	0.214935	0.0766518	0.0366845
0	H	0.0362743	0.3209	0.48263
0	H	0.074137	0.801822	0.509776
0	H	0.612219	0.0655705	0.533936
0	H	0.605047	0.852678	0.869442
0	H	0.990303	0.945939	0.848705
0	H	0.179918	0.501936	0.735541
0	H	0.243751	0.276622	0.357159
0	H	0.797792	0.14373	0.346138
0	H	0.687414	0.668207	0.268267
0	H	0.785376	0.767233	0.0346014
0	H	0.696451	0.28023	0.103319
0	H	0.184464	0.122883	0.0739135
0	H	0.0181666	0.355153	0.528393
0	H	0.0826317	0.89393	0.540323
0	H	0.628282	0.0087689	0.572759
0	H	0.573374	0.869916	0.914472
0	H	0.000519152	0.878478	0.885983
0	H	0.236287	0.596296	0.764297
0	H	0.298498	0.257191	0.389714
0	H	0.79264	0.221045	0.380412
0	H	0.61241	0.562875	0.265653
0	H	0.774184	0.697928	0.9935
0	H	0.621947	0.29253	0.112084
0	H	0.267775	0.188179	0.0554979
0	H	0.0202915	0.418081	0.486471
0	H	0.138389	0.843595	0.545845
0	H	0.548766	0.954382	0.548368
0	H	0.753899	0.0376352	0.87355
0	H	0.876569	0.993131	0.89453
0	H	0.0624767	0.408505	0.80701
0	H	0.0961403	0.128763	0.394982
0	H	0.914438	0.101335	0.390532
0	H	0.730513	0.68056	0.355133
0	H	0.889001	0.967145	0.990576
0	H	0.722108	0.300542	0.0165608
0	H	0.101581	0.0613243	0.992464
0	H	0.918366	0.146696	0.490779
0	H	0.0905159	0.937889	0.451798
0	H	0.718919	0.0689404	0.487954
0	H	0.719342	0.105287	0.850229
0	H	0.809377	0.892575	0.873913
0	H	0.101649	0.339334	0.821411
0	H	0.0973046	0.0403109	0.364754
0	H	0.980252	0.19938	0.367524
0	H	0.668346	0.70805	0.375981
0	H	0.9604	0.951847	0.00699132
0	H	0.652303	0.200054	0.998834
0	H	0.0937387	0.164948	0.987346
0	H	0.845556	0.156523	0.508635
0	H	0.171828	0.0345054	0.45026
0	H	0.72978	0.967074	0.491188
0	H	0.698581	0.993126	0.833208
0	H	0.879959	0.964162	0.845105
0	H	0.0886338	0.354501	0.771067
0	H	0.122173	0.151557	0.345946
0	H	0.907573	0.125369	0.340886
0	H	0.711847	0.763901	0.332449
0	H	0.890263	0.927162	0.0382767
0	H	0.699508	0.194477	0.0402436
0	H	0.079849	0.106883	0.0330311
0	H	0.919463	0.191888	0.537713
0	H	0.112529	0.0232604	0.488237
0	H	0.739918	0.0385191	0.532756
