#******************************************
#
# CIF file created by Zeo++
# Zeo++ is an open source package to
# analyze microporous materials
#
#*******************************************

_cell_length_a		13.5243(0)
_cell_length_b		14.7955(0)
_cell_length_c		11.0443(0)
_cell_angle_alpha		106.4(0)
_cell_angle_beta		108.924(0)
_cell_angle_gamma		92.2224(0)

_symmetry_space_group_name_H-M		'P1'
_symmetry_Int_Tables_number		1
_symmetry_cell_setting		Triclinic

loop_
_symmetry_equiv_pos_as_xyz
'+x,+y,+z'

loop_
_atom_site_label
_atom_site_type_symbol
_atom_site_fract_x
_atom_site_fract_y
_atom_site_fract_z
0	S	0.349992	0.43757	0.113465
0	S	0.635104	0.555061	0.889358
0	S	0.424191	0.575073	0.216746
0	S	0.560889	0.417589	0.786069
0	S	0.192215	0.593424	0.145728
0	S	0.792822	0.399213	0.856987
0	S	0.193666	0.498915	0.251865
0	S	0.791351	0.49369	0.750838
0	C	0.270629	0.413848	0.200341
0	C	0.714407	0.578785	0.802381
0	C	0.26539	0.33079	0.22729
0	C	0.719615	0.661833	0.775429
0	C	0.341362	0.262864	0.209446
0	C	0.643594	0.729714	0.793255
0	C	0.305405	0.169223	0.119546
0	C	0.679575	0.823383	0.883208
0	C	0.376376	0.103338	0.10915
0	C	0.608574	0.889239	0.893604
0	C	0.484045	0.129305	0.185862
0	C	0.500911	0.863263	0.816842
0	C	0.520646	0.222836	0.271452
0	C	0.464329	0.769748	0.731246
0	C	0.450581	0.28932	0.285392
0	C	0.534418	0.703249	0.717342
0	C	0.182093	0.304564	0.276851
0	C	0.802857	0.688078	0.725826
0	C	0.0740075	0.289815	0.195564
0	C	0.910985	0.702898	0.807163
0	C	0.996702	0.2625	0.242849
0	C	0.988263	0.730257	0.75989
0	C	0.0247936	0.250345	0.370242
0	C	0.960155	0.742258	0.632402
0	C	0.131423	0.265325	0.451137
0	C	0.85354	0.727195	0.551476
0	C	0.209916	0.292885	0.405964
0	C	0.775035	0.69966	0.596664
0	C	0.191715	0.137287	0.0335899
0	C	0.793273	0.85533	0.969114
0	C	0.559573	0.0585995	0.179763
0	C	0.425334	0.93393	0.822935
0	C	0.497772	0.385441	0.384876
0	C	0.487197	0.607121	0.617878
0	C	0.0357123	0.301012	0.0583511
0	C	0.949264	0.691635	0.944331
0	C	0.94079	0.221685	0.418459
0	C	0.0441438	0.770838	0.584098
0	C	0.321953	0.310107	0.498273
0	C	0.663004	0.682361	0.504358
0	C	0.322902	0.646145	0.19941
0	C	0.662133	0.346498	0.803356
0	C	0.347925	0.740274	0.224566
0	C	0.637114	0.252364	0.778201
0	C	0.456901	0.781313	0.247465
0	C	0.528129	0.211298	0.7553
0	C	0.499954	0.755115	0.143564
0	C	0.485038	0.237526	0.859176
0	C	0.602501	0.795338	0.165945
0	C	0.382503	0.197303	0.836772
0	C	0.663801	0.860526	0.290373
0	C	0.321213	0.132114	0.712337
0	C	0.621727	0.886376	0.393453
0	C	0.363285	0.106286	0.609266
0	C	0.51935	0.847139	0.373096
0	C	0.465681	0.145539	0.629644
0	C	0.26777	0.805798	0.228795
0	C	0.717228	0.186815	0.773952
0	C	0.237179	0.854548	0.132331
0	C	0.747876	0.138079	0.870424
0	C	0.165087	0.919604	0.139491
0	C	0.819964	0.0729926	0.863215
0	C	0.120782	0.936167	0.240653
0	C	0.864181	0.0564039	0.762009
0	C	0.14837	0.885989	0.334101
0	C	0.836518	0.106544	0.668483
0	C	0.221206	0.821215	0.329147
0	C	0.763732	0.171328	0.673481
0	C	0.44112	0.685267	0.00806268
0	C	0.543863	0.30736	0.994623
0	C	0.773324	0.901813	0.312334
0	C	0.211701	0.0907922	0.690363
0	C	0.47997	0.875648	0.487961
0	C	0.505033	0.117037	0.514745
0	C	0.278434	0.837102	0.0189328
0	C	0.706565	0.15545	0.983779
0	C	0.0448407	0.00628438	0.249636
0	C	0.94002	0.986232	0.752917
0	C	0.245498	0.771023	0.433145
0	C	0.739321	0.221465	0.569428
0	H	0.347112	0.0309713	0.0420455
0	H	0.637822	0.961601	0.960743
0	H	0.604537	0.244513	0.32904
0	H	0.380448	0.748069	0.673644
0	H	0.913874	0.251889	0.179762
0	H	0.0710926	0.740956	0.82303
0	H	0.154321	0.256533	0.550675
0	H	0.830635	0.735833	0.45185
0	H	0.634677	0.774942	0.0850332
0	H	0.350286	0.217687	0.917652
0	H	0.66926	0.936485	0.491068
0	H	0.315771	0.0561845	0.511641
0	H	0.144098	0.958101	0.0662997
0	H	0.840947	0.0344883	0.9364
0	H	0.112698	0.896897	0.411259
0	H	0.872077	0.095548	0.591204
0	H	0.160344	0.185958	0.975904
0	H	0.824728	0.806563	0.026619
0	H	0.143037	0.135856	0.0964109
0	H	0.841849	0.85691	0.906225
0	H	0.177035	0.0656255	0.961482
0	H	0.807926	0.926929	0.0413872
0	H	0.522588	0.98838	0.105978
0	H	0.462278	0.00417371	0.896703
0	H	0.625443	0.0832099	0.154047
0	H	0.359501	0.90928	0.848681
0	H	0.593465	0.0456752	0.277601
0	H	0.39141	0.946797	0.725093
0	H	0.5492	0.38037	0.48251
0	H	0.435955	0.612156	0.520132
0	H	0.439235	0.430806	0.406324
0	H	0.545706	0.561644	0.59666
0	H	0.547428	0.424574	0.349078
0	H	0.437339	0.568091	0.653544
0	H	0.097625	0.305016	0.0150714
0	H	0.887376	0.687856	0.987721
0	H	0.000344813	0.367308	0.061181
0	H	0.984343	0.625192	0.941361
0	H	0.973329	0.242583	0.985848
0	H	0.0118481	0.749915	0.0167926
0	H	0.887059	0.27554	0.42382
0	H	0.0978391	0.716943	0.578799
0	H	0.973041	0.214343	0.519589
0	H	0.0118773	0.778089	0.482917
0	H	0.892898	0.153736	0.350131
0	H	0.0920682	0.8388	0.652336
0	H	0.33023	0.304088	0.598088
0	H	0.654685	0.688379	0.404528
0	H	0.361114	0.381371	0.515018
0	H	0.623929	0.611071	0.487631
0	H	0.368121	0.2579	0.457225
0	H	0.616754	0.734501	0.54538
0	H	0.356391	0.667361	0.987484
0	H	0.628566	0.325453	0.015178
0	H	0.474094	0.61753	0.997416
0	H	0.510738	0.375037	0.00547109
0	H	0.448176	0.710565	0.926167
0	H	0.536995	0.281946	0.0765677
0	H	0.822587	0.845323	0.296213
0	H	0.162477	0.147248	0.706925
0	H	0.81315	0.950698	0.414809
0	H	0.171778	0.0421514	0.58775
0	H	0.772398	0.941147	0.241285
0	H	0.212684	0.0511509	0.761075
0	H	0.54043	0.920962	0.582016
0	H	0.444489	0.0718452	0.420663
0	H	0.452548	0.813155	0.510297
0	H	0.53261	0.179445	0.492571
0	H	0.413122	0.915985	0.465969
0	H	0.571711	0.0764909	0.536641
0	H	0.269697	0.7602	0.966226
0	H	0.715436	0.232335	0.0366707
0	H	0.36348	0.86439	0.0565349
0	H	0.621458	0.1283	0.946047
0	H	0.237743	0.870648	0.943413
0	H	0.747087	0.121702	0.0590593
0	H	0.0238022	0.0358444	0.165315
0	H	0.960914	0.956469	0.837037
0	H	0.0791853	0.0678303	0.3418
0	H	0.905739	0.92481	0.66059
0	H	0.971282	0.974415	0.252261
0	H	0.0137133	0.0181263	0.750556
0	H	0.257402	0.819816	0.53387
0	H	0.727532	0.172679	0.468733
0	H	0.31669	0.735985	0.441189
0	H	0.668011	0.256343	0.561289
0	H	0.179747	0.714769	0.408628
0	H	0.804969	0.277841	0.593962
