#******************************************
#
# CIF file created by Zeo++
# Zeo++ is an open source package to
# analyze microporous materials
#
#*******************************************

_cell_length_a		29.7936(0)
_cell_length_b		6.80597(0)
_cell_length_c		29.6898(0)
_cell_angle_alpha		90(0)
_cell_angle_beta		120.242(0)
_cell_angle_gamma		90(0)

_symmetry_space_group_name_H-M		'P1'
_symmetry_Int_Tables_number		1
_symmetry_cell_setting		Monoclinic

loop_
_symmetry_equiv_pos_as_xyz
'+x,+y,+z'

loop_
_atom_site_label
_atom_site_type_symbol
_atom_site_fract_x
_atom_site_fract_y
_atom_site_fract_z
0	Br	0.199666	0.751112	0.404834
0	Br	0.827329	0.253244	0.0992222
0	Br	0.82656	0.2541	0.598684
0	Br	0.198598	0.752947	0.903904
0	C	0.243349	0.721079	0.478789
0	C	0.78318	0.221749	0.0254211
0	C	0.782849	0.284293	0.524732
0	C	0.242739	0.784223	0.977728
0	C	0.295828	0.77133	0.501955
0	C	0.730749	0.271867	0.00265033
0	C	0.730364	0.234136	0.501575
0	C	0.295176	0.734131	0.00051794
0	C	0.327342	0.756727	0.556033
0	C	0.698778	0.257323	0.948605
0	C	0.698822	0.248746	0.447492
0	C	0.327127	0.748568	0.0545698
0	C	0.306521	0.690807	0.586615
0	C	0.719232	0.191339	0.917739
0	C	0.719614	0.314651	0.416879
0	C	0.306642	0.814355	0.085427
0	C	0.339289	0.679558	0.643578
0	C	0.686243	0.180245	0.860811
0	C	0.686834	0.325909	0.359912
0	C	0.339634	0.825433	0.142361
0	N	0.321155	0.691168	0.676123
0	N	0.704266	0.191808	0.828173
0	N	0.704967	0.314425	0.327369
0	N	0.321626	0.813793	0.175006
0	C	0.365613	0.67598	0.729173
0	C	0.659753	0.176314	0.775179
0	C	0.660499	0.329602	0.274305
0	C	0.366158	0.829339	0.228
0	N	0.365684	0.680156	0.772802
0	N	0.659652	0.179933	0.731529
0	N	0.660375	0.325498	0.230664
0	N	0.366268	0.825721	0.271661
0	C	0.323123	0.702066	0.779133
0	C	0.702267	0.201739	0.72527
0	C	0.702924	0.303657	0.224273
0	C	0.323673	0.803884	0.277942
0	N	0.271151	0.730436	0.738266
0	N	0.754212	0.230428	0.76619
0	N	0.754919	0.275338	0.26513
0	N	0.271731	0.775128	0.237033
0	C	0.238776	0.74586	0.759181
0	C	0.786637	0.246159	0.745354
0	C	0.787243	0.259947	0.244157
0	C	0.239306	0.759437	0.257871
0	C	0.270053	0.728122	0.813835
0	C	0.75546	0.22807	0.690704
0	C	0.755919	0.277654	0.189501
0	C	0.270482	0.777593	0.312518
0	C	0.322346	0.699918	0.826836
0	C	0.703163	0.199565	0.677629
0	C	0.70364	0.305823	0.176537
0	C	0.32278	0.806111	0.325584
0	C	0.366192	0.669069	0.879434
0	C	0.659439	0.168866	0.62498
0	C	0.659798	0.336637	0.123948
0	C	0.366513	0.836825	0.378237
0	C	0.357679	0.579216	0.917244
0	C	0.668133	0.0792316	0.587264
0	C	0.668315	0.426292	0.0861242
0	C	0.357829	0.926512	0.415948
0	C	0.399029	0.547311	0.967638
0	C	0.626929	0.048	0.536767
0	C	0.626981	0.458108	0.0357224
0	C	0.399049	0.957761	0.466446
0	C	0.449326	0.605264	0.981155
0	C	0.576625	0.10653	0.52307
0	C	0.576677	0.400346	0.0222186
0	C	0.449335	0.899023	0.480148
0	C	0.458044	0.695346	0.943944
0	C	0.567705	0.196006	0.560211
0	C	0.567945	0.310489	0.0594392
0	C	0.458233	0.809381	0.443006
0	C	0.41687	0.726168	0.893301
0	C	0.608745	0.226159	0.610973
0	C	0.609124	0.279688	0.110088
0	C	0.417199	0.779349	0.392245
0	C	0.182652	0.773393	0.72672
0	C	0.842726	0.274197	0.777894
0	C	0.843374	0.232402	0.27658
0	C	0.183221	0.731423	0.225337
0	C	0.157348	0.743268	0.672415
0	C	0.867945	0.243466	0.832165
0	C	0.868715	0.262635	0.33088
0	C	0.158012	0.762086	0.171061
0	C	0.103809	0.770834	0.641476
0	C	0.921493	0.270498	0.863169
0	C	0.922255	0.234916	0.361791
0	C	0.104466	0.735142	0.140052
0	C	0.0754555	0.826917	0.665128
0	C	0.949865	0.327074	0.839582
0	C	0.950557	0.17858	0.338105
0	C	0.0760702	0.678684	0.163625
0	Br	0.00185042	0.862638	0.621929
0	Br	0.0234654	0.361856	0.882821
0	Br	0.0241503	0.142553	0.381265
0	Br	0.00246844	0.644045	0.12038
0	C	0.0995243	0.855945	0.718855
0	C	0.925854	0.357263	0.785907
0	C	0.926444	0.149531	0.284375
0	C	0.10007	0.648495	0.217298
0	C	0.153229	0.830103	0.749608
0	C	0.872152	0.331781	0.755084
0	C	0.872744	0.17551	0.253652
0	C	0.153776	0.673935	0.248134
0	C	0.413588	0.655622	0.724306
0	C	0.611858	0.156164	0.780189
0	C	0.612516	0.349846	0.279197
0	C	0.414039	0.849579	0.222974
0	C	0.396868	0.657389	0.672335
0	C	0.628684	0.158179	0.832183
0	C	0.629251	0.34797	0.331167
0	C	0.397194	0.847593	0.170976
0	C	0.466743	0.642325	0.767981
0	C	0.558652	0.142802	0.736653
0	C	0.559369	0.363201	0.235499
0	C	0.467252	0.862919	0.266508
0	C	0.478184	0.557605	0.815798
0	C	0.547089	0.0579915	0.688816
0	C	0.547969	0.447873	0.18769
0	C	0.478831	0.947882	0.314332
0	C	0.529522	0.547773	0.856926
0	C	0.495691	0.0483937	0.647829
0	C	0.496645	0.457739	0.146544
0	C	0.530232	0.957386	0.355323
0	C	0.56988	0.622149	0.850866
0	C	0.455463	0.123005	0.654076
0	C	0.456243	0.383541	0.152556
0	C	0.570437	0.882414	0.349091
0	C	0.558822	0.706719	0.803409
0	C	0.466664	0.207436	0.701589
0	C	0.467277	0.298991	0.200005
0	C	0.559216	0.797828	0.301587
0	C	0.507682	0.716589	0.762135
0	C	0.517862	0.217038	0.742742
0	C	0.518406	0.289019	0.24131
0	C	0.508023	0.788402	0.260433
0	C	0.253677	0.638918	0.562294
0	C	0.772061	0.139118	0.94168
0	C	0.772471	0.366584	0.44119
0	C	0.253803	0.866405	0.0614743
0	C	0.221812	0.654188	0.508213
0	C	0.804339	0.154406	0.995677
0	C	0.80435	0.35124	0.495271
0	C	0.221546	0.851289	0.00746869
0	H	0.312478	0.819776	0.478268
0	H	0.714431	0.320256	0.0266175
0	H	0.713714	0.185736	0.525262
0	H	0.311507	0.685878	0.976554
0	H	0.368278	0.796823	0.574254
0	H	0.657851	0.297464	0.930658
0	H	0.657902	0.2087	0.429306
0	H	0.368055	0.70845	0.0725277
0	H	0.256508	0.735449	0.841221
0	H	0.769038	0.235382	0.663346
0	H	0.769416	0.270307	0.162072
0	H	0.256901	0.770328	0.33987
0	H	0.318645	0.53077	0.906655
0	H	0.707185	0.0304789	0.597961
0	H	0.707361	0.474731	0.0967061
0	H	0.318783	0.975264	0.405264
0	H	0.391952	0.474662	0.99619
0	H	0.634092	0.975405	0.508252
0	H	0.634064	0.530574	0.00714343
0	H	0.391887	0.0304541	0.49495
0	H	0.481618	0.579039	0.0204005
0	H	0.544532	0.0812412	0.483678
0	H	0.54439	0.426517	0.982965
0	H	0.481439	0.924265	0.519539
0	H	0.497001	0.742136	0.954168
0	H	0.528705	0.242922	0.549851
0	H	0.528976	0.263843	0.049227
0	H	0.497219	0.762239	0.45338
0	H	0.424197	0.795191	0.864389
0	H	0.601292	0.294904	0.639848
0	H	0.601771	0.21077	0.139002
0	H	0.424629	0.710555	0.363361
0	H	0.179257	0.698198	0.653817
0	H	0.845985	0.198496	0.850705
0	H	0.846832	0.307849	0.349494
0	H	0.179976	0.806982	0.152521
0	H	0.0846382	0.748854	0.599395
0	H	0.940662	0.247715	0.905223
0	H	0.941457	0.256975	0.403873
0	H	0.0853056	0.757885	0.0979964
0	H	0.0768954	0.898863	0.737091
0	H	0.948543	0.400853	0.767785
0	H	0.949039	0.106434	0.266115
0	H	0.0773685	0.60497	0.235411
0	H	0.17232	0.855758	0.791625
0	H	0.8531	0.358406	0.713111
0	H	0.853622	0.149854	0.211632
0	H	0.172812	0.647335	0.290107
0	H	0.419504	0.644241	0.653527
0	H	0.606121	0.145291	0.851063
0	H	0.606621	0.360972	0.349982
0	H	0.419737	0.860561	0.152078
0	H	0.44697	0.498936	0.821237
0	H	0.578228	0.999157	0.683284
0	H	0.579186	0.506521	0.182263
0	H	0.447694	0.0068513	0.319857
0	H	0.537691	0.482039	0.8938
0	H	0.487362	0.982588	0.610895
0	H	0.48851	0.523398	0.109658
0	H	0.53857	0.0233405	0.392243
0	H	0.609832	0.61469	0.882992
0	H	0.415496	0.115889	0.622025
0	H	0.41631	0.391069	0.120418
0	H	0.610406	0.889401	0.381148
0	H	0.590048	0.766121	0.79848
0	H	0.435528	0.266995	0.706644
0	H	0.436021	0.239647	0.204917
0	H	0.590334	0.737992	0.296551
0	H	0.499465	0.78378	0.725324
0	H	0.526218	0.283997	0.779605
0	H	0.526569	0.221802	0.27809
0	H	0.499648	0.721354	0.22357
0	H	0.237363	0.586674	0.58588
0	H	0.787974	0.08693	0.917773
0	H	0.788752	0.418847	0.417596
0	H	0.237852	0.918361	0.0853709
0	H	0.180707	0.614495	0.489533
0	H	0.845422	0.11451	0.0140162
0	H	0.845452	0.390967	0.513939
0	H	0.18046	0.891079	0.989123
0	H	0.260417	0.738288	0.699957
0	H	0.764879	0.238546	0.804461
0	H	0.765671	0.267444	0.303423
0	H	0.261053	0.767002	0.198757
0	Br	0.931694	0.471027	0.661963
0	Br	0.0938151	0.96957	0.843062
0	Br	0.09436	0.534757	0.341324
0	Br	0.932171	0.0365089	0.160202
0	C	0.00544122	0.437789	0.705562
0	C	0.020047	0.937567	0.799453
0	C	0.0206071	0.567898	0.297734
0	C	0.0059559	0.0683058	0.20383
0	C	0.033102	0.363506	0.682855
0	C	0.992306	0.863113	0.822054
0	C	0.992938	0.642031	0.320452
0	C	0.0337028	0.142811	0.181243
0	C	0.0859801	0.324346	0.71474
0	C	0.939436	0.824135	0.790065
0	C	0.940066	0.681209	0.288583
0	C	0.0865799	0.181696	0.21325
0	C	0.11114	0.360816	0.768768
0	C	0.914367	0.860635	0.736045
0	C	0.914904	0.644985	0.234542
0	C	0.111647	0.144994	0.267258
0	C	0.16607	0.312143	0.802075
0	C	0.859455	0.812135	0.702558
0	C	0.859979	0.693736	0.201243
0	C	0.166564	0.19346	0.300759
0	C	0.19485	0.272776	0.855912
0	C	0.830842	0.773339	0.648682
0	C	0.831206	0.733231	0.147411
0	C	0.195196	0.232153	0.354634
0	C	0.247009	0.230607	0.870046
0	C	0.778637	0.73091	0.63435
0	C	0.779043	0.775351	0.133271
0	C	0.247402	0.274613	0.368943
0	C	0.249864	0.243879	0.823672
0	C	0.775527	0.743663	0.680591
0	C	0.776173	0.761943	0.179634
0	C	0.250485	0.261972	0.322687
0	N	0.199718	0.293564	0.782512
0	N	0.82564	0.793116	0.721892
0	N	0.826316	0.712181	0.220794
0	N	0.200367	0.212612	0.28141
0	N	0.293657	0.217944	0.819132
0	N	0.731607	0.717785	0.684923
0	N	0.732372	0.787781	0.184161
0	N	0.294392	0.287908	0.318336
0	C	0.295677	0.215082	0.77672
0	C	0.729615	0.715179	0.727369
0	C	0.730331	0.790637	0.226561
0	C	0.296365	0.290509	0.27588
0	N	0.252313	0.231713	0.722899
0	N	0.773112	0.731739	0.781125
0	N	0.773693	0.774038	0.280387
0	N	0.25288	0.273901	0.222138
0	C	0.271638	0.207409	0.691704
0	C	0.753972	0.707556	0.812475
0	C	0.754351	0.798241	0.311571
0	C	0.271999	0.298155	0.190767
0	C	0.32905	0.180783	0.721989
0	C	0.696562	0.681149	0.782382
0	C	0.69694	0.824765	0.28128
0	C	0.329414	0.324664	0.220866
0	C	0.34468	0.184822	0.773697
0	C	0.680742	0.685231	0.730623
0	C	0.681318	0.820795	0.229571
0	C	0.34523	0.320535	0.272625
0	C	0.397268	0.163182	0.81796
0	C	0.628099	0.663678	0.686473
0	C	0.628733	0.842467	0.185316
0	C	0.397881	0.342075	0.316771
0	C	0.436369	0.0831584	0.809875
0	C	0.589101	0.583703	0.69472
0	C	0.589636	0.922404	0.193424
0	C	0.436888	0.42214	0.308558
0	C	0.486923	0.0594715	0.851484
0	C	0.538529	0.559585	0.653202
0	C	0.539082	0.946153	0.151827
0	C	0.487468	0.446192	0.350095
0	C	0.49951	0.115842	0.901854
0	C	0.525803	0.615434	0.602754
0	C	0.526483	0.889969	0.101442
0	C	0.500162	0.390108	0.40051
0	C	0.461141	0.195547	0.910255
0	C	0.564055	0.695406	0.594223
0	C	0.564838	0.810262	0.0930207
0	C	0.461898	0.310046	0.409023
0	C	0.410406	0.219286	0.868719
0	C	0.614823	0.719614	0.635672
0	C	0.615578	0.786452	0.134548
0	C	0.411147	0.285958	0.367566
0	C	0.240384	0.202727	0.634508
0	C	0.785573	0.702772	0.869644
0	C	0.785599	0.802935	0.368769
0	C	0.2404	0.30292	0.133604
0	C	0.187542	0.255804	0.608497
0	C	0.838329	0.756961	0.895219
0	C	0.838456	0.750065	0.394796
0	C	0.187659	0.248689	0.108038
0	C	0.157933	0.250827	0.554051
0	C	0.868386	0.751568	0.94962
0	C	0.868055	0.755157	0.449244
0	C	0.157586	0.254056	0.0536364
0	C	0.181603	0.192224	0.525925
0	C	0.845191	0.691641	0.978091
0	C	0.844346	0.8136	0.477344
0	C	0.180756	0.314061	0.0251527
0	Br	0.143237	0.197344	0.451104
0	Br	0.884128	0.696413	0.0528838
0	Br	0.882712	0.808797	0.552169
0	Br	0.141807	0.309311	0.950359
0	C	0.233679	0.135275	0.550858
0	C	0.793197	0.633817	0.953588
0	C	0.792242	0.870194	0.452398
0	C	0.232745	0.37199	0.049648
0	C	0.263025	0.141039	0.605215
0	C	0.763405	0.639855	0.899261
0	C	0.762912	0.864369	0.398041
0	C	0.262542	0.365917	0.103969
0	C	0.289525	0.187283	0.922562
0	C	0.736292	0.687772	0.581741
0	C	0.736521	0.818628	0.0807554
0	C	0.289753	0.317755	0.421559
0	C	0.288583	0.263553	0.966162
0	C	0.737641	0.763896	0.538326
0	C	0.737497	0.742592	0.0371507
0	C	0.288411	0.241575	0.464973
0	C	0.330351	0.232126	0.0164018
0	C	0.696131	0.732002	0.48799
0	C	0.695721	0.773882	0.986913
0	C	0.329922	0.273564	0.515317
0	C	0.373437	0.12326	0.0239891
0	C	0.652867	0.623496	0.480101
0	C	0.652565	0.882264	0.979326
0	C	0.373162	0.382216	0.523204
0	C	0.374062	0.0430862	0.980951
0	C	0.651775	0.54398	0.522939
0	C	0.651887	0.962174	0.0223622
0	C	0.374243	0.461772	0.480355
0	C	0.332408	0.0738378	0.930616
0	C	0.693254	0.574764	0.573383
0	C	0.693568	0.931627	0.0726965
0	C	0.332784	0.430905	0.429917
0	C	0.0827399	0.441731	0.790417
0	C	0.942868	0.941506	0.714508
0	C	0.943294	0.564131	0.212878
0	C	0.0831326	0.0640021	0.288766
0	C	0.0296306	0.479382	0.758727
0	C	0.995955	0.979309	0.746304
0	C	0.996406	0.526412	0.244565
0	C	0.0300425	0.0263228	0.256966
0	H	0.0138682	0.334496	0.641042
0	H	0.0115103	0.833641	0.863846
0	H	0.0121712	0.670857	0.362273
0	H	0.0145082	0.172379	0.139457
0	H	0.107318	0.26256	0.697133
0	H	0.918044	0.76223	0.807579
0	H	0.91872	0.742829	0.306201
0	H	0.107973	0.24366	0.195741
0	H	0.180035	0.273244	0.882192
0	H	0.845804	0.774664	0.622522
0	H	0.846016	0.732848	0.121128
0	H	0.180244	0.230758	0.380798
0	H	0.352178	0.163225	0.703889
0	H	0.673531	0.663694	0.800576
0	H	0.673792	0.842213	0.299363
0	H	0.35244	0.34222	0.202665
0	H	0.427066	0.0363044	0.771004
0	H	0.59849	0.537233	0.733638
0	H	0.598941	0.969163	0.232303
0	H	0.427504	0.468712	0.269644
0	H	0.51635	0.994474	0.844576
0	H	0.509178	0.494594	0.660228
0	H	0.509652	0.0110331	0.158753
0	H	0.516816	0.511263	0.343093
0	H	0.538949	0.0966574	0.934348
0	H	0.486375	0.595562	0.570324
0	H	0.487045	0.909234	0.0689552
0	H	0.539593	0.409882	0.432964
0	H	0.470247	0.239404	0.94931
0	H	0.554829	0.738989	0.555116
0	H	0.555715	0.766484	0.0539562
0	H	0.471114	0.266323	0.448109
0	H	0.381021	0.282303	0.876365
0	H	0.644111	0.782835	0.627921
0	H	0.644949	0.723403	0.126887
0	H	0.381839	0.222703	0.375286
0	H	0.169459	0.300339	0.631081
0	H	0.855964	0.802581	0.872322
0	H	0.856547	0.70561	0.372217
0	H	0.170017	0.203016	0.130936
0	H	0.116913	0.291595	0.534108
0	H	0.909349	0.793051	0.969247
0	H	0.909086	0.71454	0.469206
0	H	0.116629	0.212525	0.034027
0	H	0.251521	0.086119	0.528368
0	H	0.775763	0.583738	0.976379
0	H	0.774363	0.919137	0.47487
0	H	0.250158	0.422162	0.0268445
0	H	0.303678	0.0953297	0.624879
0	H	0.722842	0.5934	0.879895
0	H	0.722239	0.909808	0.378366
0	H	0.303113	0.412446	0.123339
0	H	0.254983	0.34794	0.960452
0	H	0.771291	0.848604	0.544241
0	H	0.771128	0.658418	0.042862
0	H	0.254782	0.156813	0.459063
0	H	0.329207	0.291633	0.0498099
0	H	0.697587	0.791096	0.454708
0	H	0.696888	0.714582	0.953499
0	H	0.32846	0.21444	0.548587
0	H	0.406095	0.100371	0.0630885
0	H	0.620442	0.60073	0.44086
0	H	0.619894	0.904984	0.940226
0	H	0.405581	0.40509	0.562446
0	H	0.407096	0.955706	0.986271
0	H	0.618561	0.457346	0.517426
0	H	0.61879	0.0491276	0.017045
0	H	0.407439	0.548516	0.485877
0	H	0.333461	0.0102875	0.897293
0	H	0.691903	0.511236	0.606542
0	H	0.692468	0.995027	0.106011
0	H	0.334114	0.494419	0.396747
0	H	0.101756	0.475454	0.831997
0	H	0.923942	0.974865	0.672913
0	H	0.924277	0.530514	0.171293
0	H	0.10206	0.0304014	0.330349
0	H	0.00752988	0.539525	0.77587
0	H	0.0181034	0.039737	0.72922
0	H	0.0184866	0.466255	0.227401
0	H	0.00788368	0.965824	0.274026
0	H	0.190926	0.315014	0.745091
0	H	0.834326	0.814177	0.759257
0	H	0.835091	0.690599	0.258204
0	H	0.191655	0.191628	0.244021
