#******************************************
#
# CIF file created by Zeo++
# Zeo++ is an open source package to
# analyze microporous materials
#
#*******************************************

_cell_length_a		19.2217(0)
_cell_length_b		18.953(0)
_cell_length_c		4.5285(0)
_cell_angle_alpha		90(0)
_cell_angle_beta		90(0)
_cell_angle_gamma		119.719(0)

_symmetry_space_group_name_H-M		'P1'
_symmetry_Int_Tables_number		1
_symmetry_cell_setting		Monoclinic

loop_
_symmetry_equiv_pos_as_xyz
'+x,+y,+z'

loop_
_atom_site_label
_atom_site_type_symbol
_atom_site_fract_x
_atom_site_fract_y
_atom_site_fract_z
0	S	0.639475	0.210692	0.414414
0	S	0.802173	0.452195	0.402469
0	S	0.564044	0.373206	0.409273
0	S	0.357018	0.802883	0.546322
0	S	0.194327	0.561224	0.557914
0	S	0.432299	0.640124	0.552018
0	S	0.705493	0.262411	0.82795
0	S	0.750378	0.465969	0.817639
0	S	0.55205	0.307429	0.823215
0	S	0.291014	0.751245	0.133017
0	S	0.245937	0.547274	0.142812
0	S	0.444274	0.705921	0.138008
0	C	0.669692	0.190339	0.100326
0	C	0.821476	0.503662	0.0896956
0	C	0.514249	0.341388	0.095407
0	C	0.326762	0.823195	0.860177
0	C	0.174942	0.509657	0.870476
0	C	0.482072	0.671951	0.865847
0	C	0.669179	0.116659	0.0184511
0	C	0.893839	0.577204	0.0118959
0	C	0.441061	0.339923	0.0142352
0	C	0.327256	0.896997	0.941801
0	C	0.102494	0.436084	0.947581
0	C	0.555233	0.673386	0.947729
0	C	0.713856	0.118589	0.768984
0	C	0.892701	0.620965	0.762676
0	C	0.400259	0.295784	0.760714
0	C	0.282451	0.894963	0.19111
0	C	0.103427	0.392197	0.196565
0	C	0.596029	0.717449	0.201063
0	C	0.702996	0.0470579	0.639275
0	C	0.963453	0.68195	0.638083
0	C	0.338495	0.304293	0.635949
0	C	0.293312	0.966423	0.320054
0	C	0.0326021	0.331143	0.320282
0	C	0.65767	0.708779	0.325724
0	C	0.6526	0.972149	0.781174
0	C	0.0368508	0.704631	0.781837
0	C	0.312774	0.353198	0.781996
0	C	0.343549	0.0413313	0.178822
0	C	0.959274	0.308514	0.176148
0	C	0.683313	0.659814	0.179577
0	C	0.612194	0.970204	0.0391463
0	C	0.0379473	0.664909	0.0387764
0	C	0.349996	0.393387	0.0430662
0	C	0.383941	0.0432814	0.920946
0	C	0.958436	0.348319	0.919063
0	C	0.645977	0.619472	0.919878
0	C	0.620371	0.0418622	0.162953
0	C	0.967146	0.602043	0.160195
0	C	0.413492	0.386671	0.164599
0	C	0.37593	0.971711	0.797125
0	C	0.0292593	0.411251	0.798243
0	C	0.582576	0.626364	0.797555
0	C	0.642465	0.896069	0.646801
0	C	0.112635	0.768822	0.649701
0	C	0.246924	0.362492	0.650989
0	C	0.353542	0.117378	0.313105
0	C	0.883306	0.24429	0.307607
0	C	0.748793	0.650141	0.312537
0	H	0.758754	0.176044	0.670322
0	H	0.836388	0.607969	0.657251
0	H	0.415508	0.25342	0.654031
0	H	0.23757	0.837432	0.28934
0	H	0.159691	0.405185	0.302536
0	H	0.580773	0.759792	0.307983
0	H	0.738038	0.0496181	0.44791
0	H	0.961193	0.715748	0.448225
0	H	0.305888	0.267662	0.446456
0	H	0.257972	0.963741	0.512124
0	H	0.0347641	0.297198	0.510122
0	H	0.690224	0.745196	0.515985
0	H	0.573175	0.91189	0.146701
0	H	0.0950574	0.682594	0.14876
0	H	0.329336	0.430928	0.154698
0	H	0.422862	0.101632	0.813153
0	H	0.901365	0.330533	0.807989
0	H	0.666447	0.581814	0.807528
0	H	0.582514	0.0385314	0.348211
0	H	0.970756	0.567032	0.345098
0	H	0.446948	0.424534	0.352442
0	H	0.413817	0.975115	0.611841
0	H	0.0258387	0.446241	0.612934
0	H	0.548932	0.588311	0.610523
0	H	0.59848	0.841041	0.763684
0	H	0.166114	0.779417	0.774925
0	H	0.227994	0.396971	0.792683
0	H	0.39706	0.17241	0.195157
0	H	0.830086	0.233923	0.182571
0	H	0.767267	0.614936	0.173245
0	H	0.699001	0.894884	0.641295
0	H	0.114161	0.82731	0.633296
0	H	0.193796	0.30381	0.603936
0	H	0.296871	0.118218	0.320595
0	H	0.881714	0.18572	0.323195
0	H	0.802203	0.708697	0.358689
0	H	0.620868	0.890688	0.416757
0	H	0.119618	0.750412	0.424098
0	H	0.267873	0.396461	0.440362
0	H	0.375763	0.123131	0.542673
0	H	0.87636	0.262581	0.533069
0	H	0.72756	0.616766	0.524504
0	As	0.670278	0.346665	0.106123
0	As	0.326054	0.666767	0.855434
