#******************************************
#
# CIF file created by Zeo++
# Zeo++ is an open source package to
# analyze microporous materials
#
#*******************************************

_cell_length_a		15.909(0)
_cell_length_b		15.8049(0)
_cell_length_c		9.83903(0)
_cell_angle_alpha		90(0)
_cell_angle_beta		90(0)
_cell_angle_gamma		120.693(0)

_symmetry_space_group_name_H-M		'P1'
_symmetry_Int_Tables_number		1
_symmetry_cell_setting		Monoclinic

loop_
_symmetry_equiv_pos_as_xyz
'+x,+y,+z'

loop_
_atom_site_label
_atom_site_type_symbol
_atom_site_fract_x
_atom_site_fract_y
_atom_site_fract_z
0	O	0.1235	0.360171	0.171182
0	O	0.679071	0.781362	0.839012
0	O	0.254519	0.923631	0.499634
0	O	0.920541	0.681623	0.668121
0	O	0.363954	0.261588	0.339057
0	O	0.789296	0.120442	0.000733087
0	O	0.404859	0.582971	0.560148
0	O	0.467326	0.84622	0.23452
0	O	0.196999	0.647607	0.89703
0	O	0.641159	0.462679	0.0622126
0	O	0.579584	0.200023	0.732178
0	O	0.849859	0.398288	0.396031
0	N	0.324918	0.465963	0.400026
0	N	0.580506	0.881076	0.0706866
0	N	0.159656	0.723588	0.73281
0	N	0.720877	0.577666	0.899522
0	N	0.465089	0.163873	0.569777
0	N	0.886487	0.321505	0.232292
0	N	0.273719	0.504257	0.199936
0	N	0.539241	0.791661	0.868996
0	N	0.249885	0.775241	0.532419
0	N	0.769869	0.538236	0.698381
0	N	0.504661	0.252701	0.367848
0	N	0.79541	0.269641	0.0326156
0	C	0.363889	0.538977	0.284786
0	C	0.506505	0.846943	0.957262
0	C	0.194805	0.685153	0.619464
0	C	0.680678	0.503963	0.785237
0	C	0.538217	0.197743	0.455328
0	C	0.851185	0.359937	0.119153
0	C	0.201871	0.408274	0.229379
0	C	0.633531	0.813469	0.897821
0	C	0.224588	0.84555	0.559184
0	C	0.842381	0.634122	0.726966
0	C	0.410302	0.230311	0.397627
0	C	0.819932	0.198818	0.0597925
0	C	0.236997	0.374268	0.351807
0	C	0.669656	0.88273	0.0208762
0	C	0.155511	0.810066	0.682085
0	C	0.808348	0.669018	0.84963
0	C	0.37537	0.161596	0.521283
0	C	0.889704	0.234482	0.18184
0	C	0.266965	0.567563	0.0963219
0	C	0.475226	0.722589	0.763945
0	C	0.316751	0.781183	0.424637
0	C	0.775538	0.474472	0.59441
0	C	0.567935	0.321735	0.262259
0	C	0.726695	0.26287	0.927181
0	C	0.449669	0.536105	0.208642
0	C	0.508471	0.936831	0.884359
0	C	0.106577	0.595299	0.544999
0	C	0.593901	0.506203	0.711202
0	C	0.535503	0.107534	0.382227
0	C	0.939329	0.449139	0.0436276
0	C	0.414229	0.438906	0.133407
0	C	0.603416	0.999206	0.805156
0	C	0.045787	0.626673	0.461819
0	C	0.628249	0.602651	0.634574
0	C	0.440054	0.0452971	0.304029
0	C	0.999902	0.416882	0.961589
0	C	0.526309	0.551113	0.315645
0	C	0.497714	0.999755	0.994045
0	C	0.0420035	0.5208	0.65391
0	C	0.518815	0.492313	0.820187
0	C	0.546319	0.0443363	0.491449
0	C	0.00403719	0.524905	0.151177
0	C	0.494649	0.622048	0.107057
0	C	0.420296	0.896043	0.787561
0	C	0.149145	0.547971	0.452317
0	C	0.547305	0.419242	0.611337
0	C	0.623196	0.14807	0.284615
0	C	0.896391	0.495346	0.949395
0	C	0.343998	0.496567	0.535482
0	C	0.552279	0.871058	0.207065
0	C	0.171341	0.70693	0.869215
0	C	0.702125	0.548679	0.0355382
0	C	0.494364	0.174625	0.705722
0	C	0.875141	0.3386	0.368646
0	C	0.291684	0.420764	0.643277
0	C	0.628981	0.895935	0.312738
0	C	0.147943	0.75999	0.974693
0	C	0.755248	0.625927	0.1414
0	C	0.418024	0.149829	0.811903
0	C	0.898504	0.285892	0.474653
0	C	0.251962	0.444559	0.753913
0	C	0.605351	0.835045	0.42726
0	C	0.212107	0.802784	0.0848171
0	C	0.796298	0.603931	0.252184
0	C	0.441758	0.211492	0.925625
0	C	0.835147	0.245073	0.585986
0	C	0.203531	0.375257	0.856583
0	C	0.675007	0.858607	0.529304
0	C	0.191277	0.851569	0.185793
0	C	0.845638	0.674737	0.352852
0	C	0.372426	0.188292	0.0279697
0	C	0.856136	0.197024	0.687874
0	C	0.195328	0.282972	0.849465
0	C	0.76756	0.943008	0.517851
0	C	0.106514	0.85717	0.177523
0	C	0.853895	0.766942	0.343171
0	C	0.28011	0.103448	0.0176824
0	C	0.940227	0.190224	0.679437
0	C	0.235984	0.259731	0.739931
0	C	0.791038	0.00370973	0.403597
0	C	0.0420938	0.813642	0.0683764
0	C	0.811673	0.788294	0.233648
0	C	0.256573	0.0419553	0.904318
0	C	0.00378782	0.231662	0.568948
0	C	0.284315	0.328552	0.63678
0	C	0.721931	0.980401	0.301021
0	C	0.0625919	0.765	0.966851
0	C	0.761986	0.717798	0.132886
0	C	0.325317	0.0649071	0.801299
0	C	0.983076	0.279509	0.466511
0	H	0.316674	0.57988	0.00995945
0	H	0.466436	0.762191	0.677452
0	H	0.276332	0.733896	0.337076
0	H	0.726954	0.463993	0.507482
0	H	0.576772	0.282145	0.175731
0	H	0.76566	0.311666	0.840095
0	H	0.286362	0.639789	0.139344
0	H	0.402015	0.670658	0.805413
0	H	0.36752	0.758433	0.462802
0	H	0.75406	0.401474	0.636742
0	H	0.641165	0.374105	0.303005
0	H	0.674907	0.283369	0.968086
0	H	0.191404	0.533938	0.0557118
0	H	0.50592	0.678205	0.723917
0	H	0.362304	0.857921	0.386989
0	H	0.851269	0.50687	0.554895
0	H	0.536685	0.365702	0.222536
0	H	0.682436	0.186429	0.888031
0	H	0.500617	0.48562	0.380144
0	H	0.564246	0.0396726	0.0560702
0	H	0.00081231	0.547307	0.711846
0	H	0.545253	0.558708	0.883213
0	H	0.480093	0.00491079	0.554261
0	H	0.0454853	0.499299	0.210218
0	H	0.54469	0.613443	0.38327
0	H	0.437196	0.955536	0.0641594
0	H	0.0847751	0.505934	0.727577
0	H	0.501756	0.431026	0.889256
0	H	0.607542	0.088433	0.560564
0	H	0.961386	0.540581	0.223926
0	H	0.594216	0.564522	0.267825
0	H	0.484676	0.0554681	0.948611
0	H	0.987942	0.450485	0.608144
0	H	0.450001	0.477922	0.774088
0	H	0.558279	0.988028	0.445633
0	H	0.0578916	0.594783	0.104067
0	H	0.157369	0.229234	0.929969
0	H	0.821337	0.961633	0.598423
0	H	0.0904391	0.895064	0.256861
0	H	0.89294	0.822073	0.421696
0	H	0.226595	0.0851003	0.0985729
0	H	0.956383	0.1529	0.75951
0	H	0.23035	0.18806	0.735969
0	H	0.863325	0.0695637	0.395555
0	H	0.975419	0.817102	0.0635195
0	H	0.817115	0.859817	0.227884
0	H	0.184575	0.975618	0.897332
0	H	0.0698416	0.22711	0.563689
0	H	0.316591	0.31092	0.55104
0	H	0.739883	0.0278953	0.211665
0	H	0.0123194	0.730678	0.881364
0	H	0.728251	0.733901	0.0474164
0	H	0.307218	0.0165351	0.712911
0	H	0.032679	0.312216	0.37995
0	H	0.38998	0.615218	0.323976
0	H	0.43127	0.795335	0.998063
0	H	0.246384	0.662641	0.660731
0	H	0.655241	0.428039	0.825158
0	H	0.613807	0.249461	0.494936
0	H	0.80013	0.38306	0.160656
0	H	0.179314	0.338819	0.430302
0	H	0.703412	0.858417	0.0982978
0	H	0.177917	0.868871	0.759088
0	H	0.866645	0.704844	0.927263
0	H	0.341976	0.186091	0.599102
0	H	0.867353	0.175871	0.259274
0	H	0.25883	0.319874	0.319857
0	H	0.72578	0.959714	0.989354
0	H	0.0785546	0.785745	0.650168
0	H	0.786376	0.723266	0.817674
0	H	0.319245	0.0844163	0.490669
0	H	0.966425	0.258223	0.149152
0	H	0.380816	0.375466	0.203178
0	H	0.668039	0.0264836	0.871242
0	H	0.0151587	0.661394	0.526209
0	H	0.662435	0.666751	0.703212
0	H	0.375843	0.0183241	0.370823
0	H	0.0302113	0.382279	0.0268427
0	H	0.475852	0.437785	0.084147
0	H	0.605885	0.064748	0.761703
0	H	0.982867	0.562212	0.414232
0	H	0.565967	0.60328	0.586748
0	H	0.437145	0.979563	0.260458
0	H	0.0629377	0.480901	0.913275
0	H	0.360948	0.426294	0.0539042
0	H	0.611657	0.958672	0.721042
0	H	0.0877575	0.677901	0.380026
0	H	0.680515	0.614604	0.553863
0	H	0.43154	0.0858801	0.220227
0	H	0.957725	0.365089	0.880418
0	H	0.440561	0.617417	0.0333289
0	H	0.420478	0.844747	0.712565
0	H	0.198184	0.59908	0.374549
0	H	0.600035	0.423429	0.535654
0	H	0.62305	0.199802	0.21037
0	H	0.845788	0.442851	0.874064
0	H	0.552607	0.621088	0.0470634
0	H	0.421886	0.956192	0.729035
0	H	0.0902303	0.485023	0.397445
0	H	0.488013	0.41924	0.55389
0	H	0.620855	0.0878541	0.22519
0	H	0.954973	0.556593	0.891318
0	H	0.52709	0.693368	0.157961
0	H	0.350832	0.858566	0.842442
0	H	0.189204	0.520652	0.510029
0	H	0.516153	0.348502	0.663579
0	H	0.692922	0.185006	0.338924
0	H	0.857896	0.524691	0.00656268
0	H	0.258703	0.516806	0.759787
0	H	0.532704	0.769573	0.436955
0	H	0.278086	0.797981	0.0916827
0	H	0.789867	0.531894	0.25983
0	H	0.514259	0.277289	0.934386
0	H	0.7697	0.250811	0.593071
0	H	0.171659	0.392666	0.943237
0	H	0.657392	0.810767	0.618407
0	H	0.241052	0.88542	0.272193
0	H	0.877901	0.658353	0.440073
0	H	0.389984	0.236522	0.116643
0	H	0.806829	0.164501	0.774974
