#******************************************
#
# CIF file created by Zeo++
# Zeo++ is an open source package to
# analyze microporous materials
#
#*******************************************

_cell_length_a		24.9165(0)
_cell_length_b		6.48019(0)
_cell_length_c		13.8653(0)
_cell_angle_alpha		90(0)
_cell_angle_beta		118.284(0)
_cell_angle_gamma		90(0)

_symmetry_space_group_name_H-M		'P1'
_symmetry_Int_Tables_number		1
_symmetry_cell_setting		Monoclinic

loop_
_symmetry_equiv_pos_as_xyz
'+x,+y,+z'

loop_
_atom_site_label
_atom_site_type_symbol
_atom_site_fract_x
_atom_site_fract_y
_atom_site_fract_z
0	C	0.865023	0.548239	0.205134
0	C	0.214973	0.547827	0.849198
0	C	0.366713	0.0481609	0.206641
0	C	0.713498	0.0480416	0.848481
0	C	0.827238	0.623912	0.00561963
0	C	0.252815	0.624466	0.0486244
0	C	0.328908	0.123928	0.00737225
0	C	0.751256	0.123819	0.0477261
0	C	0.875679	0.675613	0.123548
0	C	0.204287	0.675513	0.93064
0	C	0.377148	0.177322	0.125355
0	C	0.703021	0.177168	0.929693
0	C	0.834277	0.761447	0.924009
0	C	0.245735	0.762288	0.130104
0	C	0.335701	0.260493	0.925126
0	C	0.74442	0.260384	0.129912
0	O	0.0211615	0.168931	0.14882
0	O	0.0589616	0.168821	0.906202
0	O	0.522391	0.675045	0.14596
0	O	0.557699	0.674756	0.908701
0	C	0.0207382	0.375972	0.170503
0	C	0.0593578	0.375718	0.884227
0	C	0.521988	0.88147	0.168829
0	C	0.558164	0.881303	0.886068
0	O	0.064938	0.484284	0.19034
0	O	0.0151379	0.484018	0.864278
0	O	0.565934	0.99047	0.187766
0	O	0.514259	0.990335	0.867342
0	C	0.0792172	0.0750587	0.172481
0	C	0.000909693	0.0752928	0.88281
0	C	0.580345	0.582856	0.167787
0	C	0.499705	0.582619	0.88673
0	O	0.902731	0.633182	0.311331
0	O	0.177243	0.632462	0.742956
0	O	0.404062	0.131711	0.313251
0	O	0.676243	0.131663	0.741868
0	C	0.891076	0.54962	0.395243
0	C	0.188935	0.549053	0.659067
0	C	0.391747	0.0462911	0.396072
0	C	0.688505	0.0460755	0.65902
0	O	0.884584	0.33353	0.212372
0	O	0.195465	0.333084	0.842174
0	O	0.386759	0.833923	0.213436
0	O	0.693426	0.833809	0.841634
0	O	0.990538	0.458395	0.528961
0	O	0.0895266	0.45788	0.525122
0	O	0.490272	0.944389	0.530121
0	O	0.589948	0.944495	0.525059
0	C	0.945808	0.61746	0.504613
0	C	0.134249	0.617054	0.549685
0	C	0.446875	0.108066	0.506194
0	C	0.633376	0.10805	0.548941
0	C	0.934133	0.29248	0.199166
0	C	0.145955	0.292072	0.855474
0	C	0.436201	0.794696	0.199656
0	C	0.643959	0.794599	0.855303
0	O	0.974059	0.752261	0.68178
0	O	0.106052	0.752678	0.372693
0	O	0.475623	0.247344	0.681966
0	O	0.604567	0.247353	0.373165
0	C	0.930583	0.618034	0.600558
0	C	0.149533	0.618162	0.453804
0	C	0.431666	0.112122	0.602085
0	C	0.648544	0.112031	0.452995
0	C	0.963167	0.432657	0.167748
0	C	0.116896	0.432292	0.886836
0	C	0.464929	0.936484	0.168379
0	C	0.615231	0.936329	0.886599
0	C	0.942061	0.654275	0.143472
0	C	0.137951	0.653976	0.910895
0	C	0.443666	0.158151	0.145665
0	C	0.636501	0.158019	0.909327
0	O	0.849281	0.679727	0.646967
0	O	0.230932	0.680317	0.407685
0	O	0.350478	0.176406	0.648495
0	O	0.729716	0.176471	0.406516
0	C	0.866849	0.71517	0.563821
0	C	0.213268	0.715344	0.49074
0	C	0.368259	0.21161	0.565622
0	C	0.711948	0.211444	0.489426
0	C	0.949018	0.757125	0.0498782
0	C	0.130995	0.757132	0.00441904
0	C	0.450307	0.264052	0.052487
0	C	0.629829	0.26389	0.00245869
0	O	0.83433	0.646048	0.37359
0	O	0.245712	0.645501	0.680898
0	O	0.335601	0.146303	0.375164
0	O	0.744688	0.14584	0.679906
0	C	0.817914	0.609922	0.459217
0	C	0.262165	0.609801	0.595291
0	C	0.318855	0.109756	0.460343
0	C	0.761357	0.109362	0.594618
0	C	0.897194	0.724007	0.93261
0	C	0.182866	0.724495	0.121671
0	C	0.399094	0.22567	0.935279
0	C	0.681017	0.225542	0.119704
0	O	0.710569	0.571496	0.333315
0	O	0.369496	0.571595	0.721465
0	O	0.211345	0.076466	0.334397
0	O	0.868885	0.0758429	0.720452
0	C	0.754378	0.705354	0.415387
0	C	0.325708	0.705294	0.639263
0	C	0.255741	0.208556	0.416699
0	C	0.824495	0.207964	0.63817
0	C	0.896238	0.504773	0.890456
0	C	0.183976	0.505425	0.16414
0	C	0.399365	0.00554395	0.895128
0	C	0.680764	0.00541572	0.159877
0	O	0.864803	0.166089	0.912385
0	O	0.215754	0.166891	0.142852
0	O	0.367186	0.666407	0.914971
0	O	0.712798	0.666187	0.139811
0	C	0.865098	0.352673	0.927611
0	C	0.215247	0.353376	0.127188
0	C	0.367565	0.852874	0.930606
0	C	0.712493	0.85268	0.124264
0	O	0.832226	0.406946	0.980261
0	O	0.247966	0.407571	0.0742947
0	O	0.334395	0.906724	0.982756
0	O	0.745702	0.906598	0.0722113
0	H	0.81647	0.53406	0.18785
0	H	0.263524	0.533726	0.866508
0	H	0.318149	0.0324705	0.188929
0	H	0.762099	0.0322607	0.866328
0	H	0.780118	0.627396	0.996393
0	H	0.299897	0.628183	0.0577827
0	H	0.281707	0.126418	0.997737
0	H	0.798476	0.12628	0.0574229
0	H	0.868498	0.842343	0.137871
0	H	0.211382	0.842151	0.916036
0	H	0.369338	0.343627	0.139319
0	H	0.710838	0.343469	0.915775
0	H	0.828778	0.926858	0.940384
0	H	0.251115	0.927629	0.113432
0	H	0.329121	0.426002	0.939633
0	H	0.751013	0.425858	0.115425
0	H	0.797622	0.731368	0.839535
0	H	0.282447	0.732807	0.214593
0	H	0.299592	0.226564	0.840691
0	H	0.780538	0.226345	0.214351
0	H	0.0723742	0.911876	0.185602
0	H	0.00801377	0.911507	0.871403
0	H	0.570991	0.416786	0.165795
0	H	0.50926	0.416505	0.890074
0	H	0.116435	0.140959	0.247664
0	H	0.963825	0.13906	0.80678
0	H	0.616235	0.628832	0.249598
0	H	0.464082	0.626785	0.804346
0	H	0.0869058	0.0983024	0.101792
0	H	0.992835	0.101398	0.952901
0	H	0.591505	0.629116	0.103366
0	H	0.488054	0.630775	0.950259
0	H	0.884948	0.379519	0.387111
0	H	0.195052	0.378935	0.667144
0	H	0.384469	0.876794	0.385992
0	H	0.695718	0.876577	0.669076
0	H	0.00333117	0.457863	0.46986
0	H	0.0765914	0.457323	0.584081
0	H	0.503228	0.941653	0.471258
0	H	0.576755	0.94266	0.583621
0	H	0.964781	0.769195	0.497735
0	H	0.115228	0.768703	0.556655
0	H	0.467339	0.257611	0.500384
0	H	0.612952	0.257666	0.554794
0	H	0.945617	0.12914	0.217163
0	H	0.134476	0.128712	0.837588
0	H	0.447931	0.631323	0.217092
0	H	0.632197	0.631269	0.837826
0	H	0.992091	0.682892	0.755456
0	H	0.0880607	0.68357	0.298934
0	H	0.491965	0.184132	0.756749
0	H	0.588229	0.184001	0.29833
0	H	0.934167	0.4603	0.634849
0	H	0.145928	0.460628	0.419312
0	H	0.435135	0.955676	0.637605
0	H	0.645034	0.955578	0.417419
0	H	0.971984	0.742146	0.221027
0	H	0.107982	0.741559	0.833245
0	H	0.47346	0.244878	0.223747
0	H	0.606726	0.244789	0.83127
0	H	0.858191	0.813586	0.691729
0	H	0.222021	0.814261	0.363002
0	H	0.358863	0.310648	0.692857
0	H	0.721306	0.3107	0.362183
0	H	0.869008	0.884658	0.551991
0	H	0.211107	0.884806	0.502734
0	H	0.371244	0.381005	0.554592
0	H	0.708984	0.38082	0.500549
0	H	0.953308	0.926926	0.0653806
0	H	0.126642	0.926864	0.988727
0	H	0.452729	0.434088	0.0671224
0	H	0.627425	0.433897	0.987841
0	H	0.992907	0.709994	0.0541849
0	H	0.0871215	0.709908	0.000226831
0	H	0.494864	0.223032	0.057839
0	H	0.585263	0.222904	0.997108
0	H	0.815856	0.439751	0.470662
0	H	0.264215	0.439659	0.583711
0	H	0.315943	0.939576	0.470616
0	H	0.764209	0.939191	0.584253
0	H	0.904044	0.836715	0.877867
0	H	0.176006	0.837365	0.17631
0	H	0.405735	0.337231	0.87986
0	H	0.674373	0.337097	0.175137
0	H	0.713612	0.585546	0.263052
0	H	0.366392	0.585819	0.791649
0	H	0.214696	0.0890522	0.264361
0	H	0.865546	0.0883314	0.790499
0	H	0.740368	0.711359	0.480327
0	H	0.339767	0.711231	0.574382
0	H	0.241771	0.216176	0.481686
0	H	0.838408	0.215513	0.573103
0	H	0.75097	0.862798	0.380312
0	H	0.329053	0.862791	0.674223
0	H	0.253015	0.365802	0.381755
0	H	0.827265	0.365286	0.673067
0	H	0.87345	0.504269	0.79822
0	H	0.206731	0.50536	0.256383
0	H	0.378008	0.00340741	0.803117
0	H	0.702155	0.00324777	0.251915
0	H	0.94348	0.450973	0.913098
0	H	0.136753	0.451277	0.141503
0	H	0.447098	0.953173	0.920425
0	H	0.633044	0.953071	0.134645
