#******************************************
#
# CIF file created by Zeo++
# Zeo++ is an open source package to
# analyze microporous materials
#
#*******************************************

_cell_length_a		19.6767(0)
_cell_length_b		12.1659(0)
_cell_length_c		28.0634(0)
_cell_angle_alpha		90(0)
_cell_angle_beta		108.841(0)
_cell_angle_gamma		90(0)

_symmetry_space_group_name_H-M		'P1'
_symmetry_Int_Tables_number		1
_symmetry_cell_setting		Monoclinic

loop_
_symmetry_equiv_pos_as_xyz
'+x,+y,+z'

loop_
_atom_site_label
_atom_site_type_symbol
_atom_site_fract_x
_atom_site_fract_y
_atom_site_fract_z
0	S	0.647289	0.490144	0.171976
0	S	0.32967	0.48979	0.333875
0	S	0.307516	0.508843	0.836321
0	S	0.624876	0.508858	0.67431
0	S	0.1472	0.989454	0.171845
0	S	0.82984	0.989466	0.334052
0	S	0.807526	0.00943617	0.836423
0	S	0.124874	0.00945575	0.674212
0	O	0.541377	0.390839	0.0378922
0	O	0.433038	0.387626	0.467091
0	O	0.413313	0.608043	0.970415
0	O	0.521655	0.611638	0.54118
0	O	0.0415424	0.890116	0.0379127
0	O	0.932789	0.886681	0.467084
0	O	0.913115	0.108718	0.970369
0	O	0.0219073	0.112345	0.541179
0	O	0.522038	0.461686	0.187407
0	O	0.454552	0.461499	0.317689
0	O	0.432812	0.537392	0.820939
0	O	0.500101	0.537338	0.690595
0	O	0.0219675	0.961491	0.187229
0	O	0.954629	0.961369	0.317879
0	O	0.932825	0.0375172	0.821095
0	O	7.83626e-05	0.0374887	0.6904
0	O	0.735554	0.675691	0.115804
0	O	0.241782	0.675102	0.388502
0	O	0.219167	0.323211	0.892436
0	O	0.712868	0.323744	0.619664
0	O	0.235555	0.175902	0.115726
0	O	0.7418	0.175396	0.388594
0	O	0.719146	0.822942	0.892492
0	O	0.212897	0.823445	0.619617
0	O	0.498138	0.793533	0.0537837
0	O	0.479192	0.791949	0.454871
0	O	0.456615	0.205448	0.954506
0	O	0.475488	0.206832	0.553398
0	O	0.998579	0.293774	0.0538324
0	O	0.978727	0.292188	0.454913
0	O	0.956152	0.705224	0.954475
0	O	0.975932	0.706635	0.553345
0	N	0.541564	0.361122	0.119434
0	N	0.435871	0.361028	0.385936
0	N	0.413175	0.637867	0.888893
0	N	0.518805	0.637819	0.622322
0	N	0.0414288	0.860693	0.119331
0	N	0.935983	0.860691	0.386046
0	N	0.913263	0.138233	0.888965
0	N	0.01872	0.138196	0.622228
0	N	0.625122	0.580795	0.0773163
0	N	0.351383	0.580148	0.428432
0	N	0.329579	0.418137	0.930955
0	N	0.603222	0.41869	0.579745
0	N	0.1253	0.080946	0.0775966
0	N	0.85122	0.0803519	0.428248
0	N	0.829369	0.917945	0.93067
0	N	0.103444	0.918514	0.580015
0	N	0.624455	0.769137	0.0838199
0	N	0.352733	0.768656	0.423771
0	N	0.330261	0.229774	0.924506
0	N	0.601921	0.23022	0.584492
0	N	0.124672	0.269444	0.0838041
0	N	0.852547	0.268982	0.423799
0	N	0.830034	0.729434	0.924508
0	N	0.102117	0.729905	0.584467
0	N	0.551173	0.616423	0.0618018
0	N	0.42542	0.614952	0.445473
0	N	0.403525	0.382501	0.946505
0	N	0.529207	0.383858	0.562708
0	N	0.0515122	0.116662	0.0618985
0	N	0.925103	0.115188	0.445487
0	N	0.903161	0.882253	0.946403
0	N	0.0295658	0.883683	0.562776
0	C	0.570177	0.399366	0.172731
0	C	0.406829	0.398994	0.332642
0	C	0.384621	0.599651	0.835589
0	C	0.54782	0.599812	0.675611
0	C	0.0700657	0.898841	0.172619
0	C	0.906912	0.898616	0.332766
0	C	0.884666	0.100093	0.835675
0	C	0.0477811	0.10026	0.675503
0	C	0.568741	0.404691	0.0831196
0	C	0.407436	0.402806	0.421838
0	C	0.385972	0.594246	0.925176
0	C	0.547217	0.596143	0.586373
0	C	0.0689189	0.904018	0.083103
0	C	0.90731	0.902246	0.421913
0	C	0.885754	0.0948638	0.925172
0	C	0.047392	0.0966604	0.586364
0	C	0.638202	0.474646	0.105354
0	C	0.338358	0.473735	0.400613
0	C	0.316523	0.524305	0.902927
0	C	0.616228	0.525051	0.607586
0	C	0.138267	0.974346	0.105326
0	C	0.838339	0.97356	0.400698
0	C	0.816414	0.0245341	0.902931
0	C	0.11634	0.0253058	0.607564
0	C	0.483341	0.555728	0.156459
0	C	0.493569	0.555665	0.348322
0	C	0.471398	0.4432	0.851835
0	C	0.461081	0.443201	0.659947
0	C	0.983183	0.0559936	0.156504
0	C	0.993754	0.0560007	0.348281
0	C	0.97153	0.942898	0.851779
0	C	0.960943	0.942893	0.659992
0	C	0.406611	0.537063	0.155537
0	C	0.570134	0.536736	0.348903
0	C	0.548139	0.461748	0.852754
0	C	0.384507	0.462117	0.659348
0	C	0.906475	0.0374533	0.155604
0	C	0.0702897	0.0371589	0.34884
0	C	0.0482445	0.961357	0.852677
0	C	0.8844	0.961721	0.659424
0	C	0.518302	0.658972	0.183884
0	C	0.458537	0.658466	0.320478
0	C	0.436365	0.340055	0.824362
0	C	0.496083	0.340363	0.687774
0	C	0.0182885	0.159261	0.183932
0	C	0.958592	0.158825	0.320429
0	C	0.936372	0.839711	0.824316
0	C	0.996077	0.840024	0.687818
0	C	0.598775	0.308785	0.210378
0	C	0.378155	0.308889	0.294671
0	C	0.355983	0.690172	0.797919
0	C	0.576559	0.689895	0.713599
0	C	0.0988089	0.808125	0.21027
0	C	0.878067	0.80838	0.294791
0	C	0.855904	0.190768	0.798008
0	C	0.0766209	0.190504	0.713482
0	C	0.580305	0.302814	0.254572
0	C	0.396759	0.303371	0.250487
0	C	0.37446	0.696153	0.753729
0	C	0.557926	0.695469	0.75778
0	C	0.0804737	0.80216	0.25452
0	C	0.896557	0.802829	0.250553
0	C	0.87426	0.196777	0.753771
0	C	0.058117	0.196087	0.757713
0	C	0.607581	0.217325	0.288676
0	C	0.369681	0.218199	0.216135
0	C	0.347126	0.781585	0.719599
0	C	0.585029	0.780644	0.792131
0	C	0.107794	0.716734	0.28867
0	C	0.869465	0.7177	0.216168
0	C	0.846904	0.28216	0.719605
0	C	0.0852477	0.281199	0.792106
0	C	0.652236	0.137682	0.278601
0	C	0.325012	0.138182	0.225915
0	C	0.302415	0.86115	0.729658
0	C	0.629719	0.860628	0.782345
0	C	0.152465	0.637058	0.27865
0	C	0.824787	0.637629	0.225894
0	C	0.802178	0.361768	0.729609
0	C	0.129949	0.361234	0.782384
0	C	0.670425	0.143731	0.234408
0	C	0.306584	0.143719	0.270022
0	C	0.28417	0.855062	0.773827
0	C	0.648087	0.855122	0.738213
0	C	0.170625	0.643118	0.234453
0	C	0.806371	0.643211	0.270001
0	C	0.783952	0.355647	0.773781
0	C	0.1483	0.355691	0.738247
0	C	0.644495	0.229625	0.200518
0	C	0.332363	0.229329	0.304146
0	C	0.31014	0.769189	0.807729
0	C	0.622313	0.76948	0.704105
0	C	0.144631	0.728945	0.200498
0	C	0.83218	0.728796	0.304171
0	C	0.809968	0.269836	0.807738
0	C	0.122485	0.270117	0.704084
0	C	0.476321	0.294779	0.103013
0	C	0.500849	0.293735	0.402262
0	C	0.478426	0.704199	0.905324
0	C	0.453813	0.705118	0.606038
0	C	0.976098	0.79416	0.102939
0	C	0.00102963	0.793171	0.402319
0	C	0.978599	0.204769	0.905369
0	C	0.953662	0.205686	0.605962
0	C	0.4148	0.340241	0.0678921
0	C	0.561875	0.337996	0.438372
0	C	0.539949	0.658753	0.940444
0	C	0.392817	0.660863	0.569897
0	C	0.914507	0.839466	0.067818
0	C	0.0621342	0.837262	0.438428
0	C	0.040188	0.159479	0.940493
0	C	0.892581	0.161595	0.569835
0	C	0.352637	0.27673	0.0507687
0	C	0.623521	0.27359	0.456469
0	C	0.602111	0.72229	0.957557
0	C	0.331164	0.725219	0.551796
0	C	0.852357	0.775966	0.0507003
0	C	0.123758	0.772858	0.456524
0	C	0.102341	0.22301	0.957603
0	C	0.830934	0.225944	0.551746
0	C	0.351581	0.169681	0.0686242
0	C	0.624673	0.166651	0.438455
0	C	0.603167	0.829295	0.939654
0	C	0.329977	0.832143	0.569825
0	C	0.851301	0.668977	0.068576
0	C	0.124913	0.66598	0.438494
0	C	0.1034	0.329949	0.939681
0	C	0.82974	0.332805	0.569787
0	C	0.412852	0.126262	0.104209
0	C	0.564128	0.124476	0.401681
0	C	0.541898	0.872649	0.904037
0	C	0.390516	0.874379	0.606602
0	C	0.912593	0.625668	0.104163
0	C	0.0643456	0.623925	0.401716
0	C	0.0421113	0.373202	0.904068
0	C	0.890306	0.3749	0.606569
0	C	0.475881	0.188178	0.121724
0	C	0.501599	0.18746	0.383227
0	C	0.47887	0.810756	0.886562
0	C	0.45304	0.811405	0.625075
0	C	0.975649	0.687517	0.121611
0	C	0.00178833	0.686853	0.383321
0	C	0.979053	0.311364	0.886649
0	C	0.952865	0.31199	0.62497
0	C	0.704017	0.420829	0.0992597
0	C	0.273053	0.420173	0.407709
0	C	0.250672	0.578064	0.908996
0	C	0.68154	0.578693	0.600532
0	C	0.20412	0.920504	0.0992723
0	C	0.772969	0.919917	0.407701
0	C	0.750541	0.0783593	0.908972
0	C	0.181708	0.0789561	0.60055
0	C	0.705334	0.410553	0.0496466
0	C	0.269705	0.412825	0.456992
0	C	0.249354	0.588404	0.958608
0	C	0.684942	0.586021	0.551262
0	C	0.205589	0.91005	0.049707
0	C	0.769451	0.912356	0.456932
0	C	0.749086	0.0888865	0.958535
0	C	0.185224	0.0864913	0.551324
0	C	0.764252	0.362446	0.0407846
0	C	0.208775	0.369955	0.465254
0	C	0.19041	0.636444	0.967455
0	C	0.745884	0.628895	0.54301
0	C	0.264485	0.861881	0.0408068
0	C	0.708534	0.869426	0.465225
0	C	0.690165	0.137009	0.967431
0	C	0.246144	0.12945	0.543023
0	C	0.823489	0.327732	0.0808115
0	C	0.151217	0.331919	0.424796
0	C	0.131164	0.671075	0.927419
0	C	0.803436	0.666941	0.583481
0	C	0.323755	0.826985	0.0807786
0	C	0.650962	0.831186	0.424807
0	C	0.630888	0.171832	0.927454
0	C	0.303716	0.167698	0.583433
0	C	0.821838	0.336153	0.129996
0	C	0.155265	0.336387	0.376105
0	C	0.132821	0.662611	0.878234
0	C	0.799357	0.66246	0.632161
0	C	0.322059	0.835644	0.12996
0	C	0.655065	0.835902	0.376124
0	C	0.632573	0.163133	0.878273
0	C	0.299614	0.163004	0.632122
0	C	0.762298	0.382599	0.139441
0	C	0.215541	0.381342	0.36727
0	C	0.192365	0.616161	0.868802
0	C	0.739053	0.617518	0.640976
0	C	0.262485	0.882155	0.139381
0	C	0.7154	0.880953	0.36733
0	C	0.692151	0.116598	0.868855
0	C	0.239285	0.117976	0.640921
0	C	0.671352	0.675572	0.0967952
0	C	0.305689	0.675397	0.408994
0	C	0.283368	0.323349	0.911483
0	C	0.648928	0.32349	0.599213
0	C	0.171385	0.175906	0.0967293
0	C	0.805679	0.17578	0.409106
0	C	0.783315	0.822965	0.911539
0	C	0.148971	0.823094	0.599139
0	C	0.550143	0.735949	0.0628995
0	C	0.426852	0.734597	0.445063
0	C	0.40456	0.262986	0.945412
0	C	0.527821	0.264244	0.563183
0	C	0.0505589	0.236048	0.0631424
0	C	0.926493	0.234749	0.444899
0	C	0.904146	0.762859	0.94517
0	C	0.0282079	0.764165	0.563369
0	C	0.647796	0.881987	0.0864926
0	C	0.328808	0.881256	0.421593
0	C	0.306911	0.116925	0.921808
0	C	0.62584	0.117598	0.586666
0	C	0.147965	0.382222	0.0864487
0	C	0.828675	0.381504	0.421655
0	C	0.80675	0.61666	0.921848
0	C	0.125977	0.617363	0.586604
0	C	0.706014	0.917006	0.127397
0	C	0.272664	0.916528	0.37933
0	C	0.248678	0.081977	0.8809
0	C	0.681994	0.0823171	0.628925
0	C	0.206162	0.417246	0.127309
0	C	0.772553	0.416759	0.37944
0	C	0.74853	0.581708	0.880983
0	C	0.182111	0.582095	0.628819
0	C	0.724778	0.0284376	0.13039
0	C	0.252544	0.0272392	0.376525
0	C	0.229889	0.970553	0.877872
0	C	0.702105	0.971585	0.631739
0	C	0.224998	0.528342	0.130347
0	C	0.752351	0.527154	0.376566
0	C	0.729667	0.470612	0.877916
0	C	0.202299	0.471697	0.631698
0	C	0.686431	0.102482	0.0933022
0	C	0.286968	0.100387	0.415334
0	C	0.268224	0.896427	0.914923
0	C	0.667701	0.898463	0.592927
0	C	0.186733	0.60246	0.0933124
0	C	0.786675	0.600377	0.415318
0	C	0.76792	0.396424	0.914913
0	C	0.167983	0.398492	0.592939
0	C	0.628731	0.0651135	0.0525483
0	C	0.341872	0.0627705	0.457717
0	C	0.325952	0.933719	0.95568
0	C	0.612808	0.936083	0.55053
0	C	0.129048	0.565146	0.0525922
0	C	0.84157	0.562843	0.457675
0	C	0.825632	0.433663	0.955636
0	C	0.113109	0.436038	0.550577
0	C	0.609789	0.954062	0.0480376
0	C	0.362853	0.952374	0.461561
0	C	0.344927	0.0447655	0.960222
0	C	0.591813	0.0464725	0.546697
0	C	0.110099	0.454389	0.0480651
0	C	0.862574	0.452742	0.46154
0	C	0.844615	0.544427	0.960191
0	C	0.0920893	0.546135	0.546717
0	H	0.520827	0.582044	0.0266455
0	H	0.452379	0.579778	0.481349
0	H	0.433861	0.416911	0.981653
0	H	0.502283	0.418865	0.526828
0	H	0.0210738	0.0825974	0.026752
0	H	0.952109	0.0804791	0.48141
0	H	0.933583	0.916354	0.981542
0	H	0.00256345	0.918391	0.526865
0	H	0.488379	0.549926	0.11824
0	H	0.488742	0.550775	0.386627
0	H	0.466352	0.448958	0.89005
0	H	0.465907	0.448104	0.621638
0	H	0.988296	0.0503725	0.118336
0	H	0.988847	0.0512935	0.386535
0	H	0.966411	0.948492	0.889946
0	H	0.965839	0.947619	0.621736
0	H	0.389176	0.45254	0.143657
0	H	0.587655	0.452224	0.360734
0	H	0.565675	0.546192	0.864724
0	H	0.366967	0.546612	0.647506
0	H	0.889044	0.952986	0.143744
0	H	0.0877966	0.952698	0.360648
0	H	0.0657654	0.0457461	0.864626
0	H	0.86688	0.0461654	0.647608
0	H	0.368955	0.592592	0.129113
0	H	0.608063	0.592358	0.375077
0	H	0.585743	0.406022	0.879099
0	H	0.346603	0.406477	0.633178
0	H	0.869036	0.0930265	0.129136
0	H	0.108011	0.0928122	0.375062
0	H	0.0856404	0.905598	0.879066
0	H	0.846696	0.906056	0.633203
0	H	0.400962	0.547784	0.192878
0	H	0.575272	0.547289	0.311395
0	H	0.553729	0.451194	0.815386
0	H	0.379341	0.451567	0.696847
0	H	0.900674	0.0483901	0.192858
0	H	0.0755834	0.0479205	0.311419
0	H	0.0539872	0.950595	0.815396
0	H	0.879083	0.950959	0.696837
0	H	0.57441	0.666316	0.184828
0	H	0.402341	0.66575	0.31935
0	H	0.38027	0.332722	0.82345
0	H	0.552294	0.333082	0.688936
0	H	0.0742916	0.166726	0.18465
0	H	0.902501	0.166273	0.319528
0	H	0.880383	0.832244	0.823629
0	H	0.0521875	0.832597	0.688758
0	H	0.490658	0.733054	0.165159
0	H	0.486077	0.732831	0.338957
0	H	0.463983	0.265894	0.843022
0	H	0.468555	0.266028	0.669264
0	H	0.990528	0.233347	0.165229
0	H	0.986267	0.233181	0.338886
0	H	0.964119	0.765561	0.842962
0	H	0.968423	0.765695	0.669321
0	H	0.519125	0.659522	0.223129
0	H	0.457915	0.658128	0.281262
0	H	0.435481	0.339605	0.785102
0	H	0.496649	0.340654	0.726978
0	H	0.0190848	0.160278	0.223167
0	H	0.957999	0.158931	0.281224
0	H	0.935522	0.838785	0.785068
0	H	0.996602	0.839833	0.727008
0	H	0.54429	0.364338	0.26203
0	H	0.432964	0.36485	0.243192
0	H	0.410486	0.634647	0.746278
0	H	0.521685	0.634033	0.765056
0	H	0.0446542	0.863815	0.262111
0	H	0.93257	0.864441	0.243125
0	H	0.910092	0.135134	0.746186
0	H	0.0220768	0.134516	0.765132
0	H	0.5945	0.212531	0.323565
0	H	0.382849	0.213944	0.18123
0	H	0.360174	0.786361	0.684697
0	H	0.571836	0.784934	0.827023
0	H	0.0948147	0.711972	0.323588
0	H	0.882554	0.713434	0.181244
0	H	0.859869	0.286924	0.684682
0	H	0.0721385	0.28548	0.827022
0	H	0.673603	0.0717364	0.305556
0	H	0.303797	0.0724872	0.198766
0	H	0.281017	0.927059	0.702685
0	H	0.650976	0.926295	0.809505
0	H	0.173844	0.571052	0.305578
0	H	0.80358	0.571849	0.198782
0	H	0.78078	0.427751	0.702672
0	H	0.151213	0.426972	0.809512
0	H	0.704706	0.0812809	0.226218
0	H	0.272138	0.0810843	0.277926
0	H	0.249795	0.917408	0.781984
0	H	0.682494	0.917788	0.730281
0	H	0.204993	0.580764	0.226272
0	H	0.771854	0.580658	0.277901
0	H	0.749502	0.417908	0.781932
0	H	0.182782	0.418275	0.730328
0	H	0.658891	0.234388	0.166062
0	H	0.317852	0.23335	0.338562
0	H	0.295669	0.76435	0.842153
0	H	0.636769	0.765492	0.669662
0	H	0.159251	0.733817	0.166115
0	H	0.817436	0.732922	0.338512
0	H	0.795267	0.264869	0.842085
0	H	0.137175	0.266007	0.669721
0	H	0.415778	0.424161	0.0546666
0	H	0.560469	0.421089	0.452368
0	H	0.538985	0.574829	0.953666
0	H	0.394275	0.57779	0.555886
0	H	0.915406	0.923453	0.0547311
0	H	0.0608187	0.920421	0.452298
0	H	0.0393033	0.0754918	0.953583
0	H	0.893924	0.078451	0.555955
0	H	0.304817	0.311257	0.0235528
0	H	0.670718	0.3073	0.484768
0	H	0.649928	0.687777	0.984782
0	H	0.283993	0.691489	0.523494
0	H	0.804551	0.810567	0.023599
0	H	0.170955	0.806635	0.484713
0	H	0.150146	0.188419	0.984715
0	H	0.783753	0.19215	0.523552
0	H	0.302724	0.120321	0.0555209
0	H	0.672964	0.116301	0.45257
0	H	0.652022	0.878674	0.952746
0	H	0.281669	0.882427	0.555726
0	H	0.802509	0.619631	0.0555215
0	H	0.173145	0.615641	0.452551
0	H	0.15219	0.379316	0.952726
0	H	0.781483	0.383088	0.555747
0	H	0.41144	0.0432508	0.118334
0	H	0.565768	0.0412217	0.387624
0	H	0.543331	0.955608	0.889856
0	H	0.388864	0.957621	0.620663
0	H	0.911197	0.54279	0.118394
0	H	0.0659742	0.540806	0.387546
0	H	0.0435286	0.456027	0.889784
0	H	0.888655	0.458018	0.620737
0	H	0.523332	0.153443	0.149484
0	H	0.454511	0.152853	0.355027
0	H	0.431414	0.845438	0.858787
0	H	0.500148	0.846015	0.653282
0	H	0.0231029	0.652606	0.14943
0	H	0.9547	0.652063	0.355066
0	H	0.931599	0.346232	0.858816
0	H	0.999947	0.346788	0.653237
0	H	0.659484	0.439855	0.01834
0	H	0.315156	0.441112	0.488708
0	H	0.295219	0.559154	0.98992
0	H	0.639516	0.557731	0.519536
0	H	0.159855	0.939169	0.0183357
0	H	0.81477	0.940429	0.488724
0	H	0.794835	0.0598153	0.989912
0	H	0.139923	0.0584124	0.519532
0	H	0.763484	0.352253	0.00217983
0	H	0.20594	0.367151	0.503342
0	H	0.191156	0.646651	0.0060525
0	H	0.748722	0.631746	0.504916
0	H	0.263808	0.85148	0.00219808
0	H	0.705592	0.866412	0.503321
0	H	0.690835	0.147425	0.00603702
0	H	0.249066	0.132464	0.504918
0	H	0.870303	0.294302	0.0733125
0	H	0.103727	0.298722	0.431496
0	H	0.0843242	0.704451	0.934906
0	H	0.850926	0.700165	0.576787
0	H	0.370702	0.793585	0.0732963
0	H	0.603325	0.798006	0.431473
0	H	0.583922	0.20519	0.93493
0	H	0.351353	0.200887	0.576767
0	H	0.866987	0.306784	0.161287
0	H	0.111202	0.305595	0.344519
0	H	0.0876597	0.691912	0.846938
0	H	0.843418	0.693289	0.663761
0	H	0.367278	0.806129	0.161264
0	H	0.610943	0.804951	0.344508
0	H	0.587349	0.192602	0.846966
0	H	0.343743	0.193988	0.663737
0	H	0.763023	0.386603	0.178571
0	H	0.215682	0.385025	0.32838
0	H	0.191621	0.612074	0.829669
0	H	0.738897	0.613851	0.679864
0	H	0.263294	0.886014	0.178519
0	H	0.715474	0.884519	0.328437
0	H	0.691312	0.112657	0.829712
0	H	0.239192	0.114459	0.67981
0	H	0.735811	0.858423	0.156003
0	H	0.245245	0.858268	0.34979
0	H	0.218884	0.140579	0.852306
0	H	0.709426	0.140594	0.658462
0	H	0.235946	0.359031	0.155948
0	H	0.74517	0.358863	0.349855
0	H	0.718741	0.639948	0.852356
0	H	0.209514	0.640009	0.6584
0	H	0.769301	0.0574771	0.162363
0	H	0.210012	0.0563794	0.343404
0	H	0.185357	0.941586	0.845896
0	H	0.744635	0.942439	0.664867
0	H	0.269541	0.557438	0.162261
0	H	0.709771	0.556322	0.343496
0	H	0.685111	0.441593	0.845997
0	H	0.244872	0.442509	0.664771
0	H	0.702015	0.189467	0.0957941
0	H	0.270904	0.18708	0.412538
0	H	0.252626	0.809454	0.912407
0	H	0.683738	0.811759	0.595723
0	H	0.202296	0.689396	0.0957885
0	H	0.770626	0.687015	0.412528
0	H	0.752341	0.309503	0.912414
0	H	0.184011	0.311844	0.595728
0	H	0.598489	0.122902	0.0235176
0	H	0.369061	0.11983	0.488052
0	H	0.356193	0.875877	0.98468
0	H	0.585641	0.879024	0.520188
0	H	0.0988935	0.622934	0.0235737
0	H	0.86867	0.619916	0.487993
0	H	0.855783	0.375828	0.984629
0	H	0.0860279	0.378986	0.520247
0	H	0.566373	0.924587	0.0153845
0	H	0.404817	0.922838	0.494929
0	H	0.388365	0.0741967	0.99288
0	H	0.549845	0.075997	0.513322
0	H	0.0666947	0.425295	0.015462
0	H	0.904528	0.423605	0.494861
0	H	0.888041	0.573471	0.992799
0	H	0.0501313	0.575264	0.513395
