#******************************************
#
# CIF file created by Zeo++
# Zeo++ is an open source package to
# analyze microporous materials
#
#*******************************************

_cell_length_a		10.2687(0)
_cell_length_b		12.0321(0)
_cell_length_c		15.0399(0)
_cell_angle_alpha		79.2818(0)
_cell_angle_beta		88.8241(0)
_cell_angle_gamma		80.4204(0)

_symmetry_space_group_name_H-M		'P1'
_symmetry_Int_Tables_number		1
_symmetry_cell_setting		Triclinic

loop_
_symmetry_equiv_pos_as_xyz
'+x,+y,+z'

loop_
_atom_site_label
_atom_site_type_symbol
_atom_site_fract_x
_atom_site_fract_y
_atom_site_fract_z
0	Cl	0.711741	0.398087	0.103404
0	Cl	0.251716	0.572375	0.937484
0	Cl	0.773825	0.698795	0.0868796
0	Cl	0.187675	0.271327	0.95513
0	C	0.657509	0.409913	0.490835
0	C	0.304773	0.559043	0.553265
0	C	0.663715	0.421015	0.39518
0	C	0.298682	0.548601	0.648873
0	C	0.740133	0.497929	0.347207
0	C	0.221799	0.472292	0.697185
0	H	0.748749	0.506419	0.273689
0	H	0.213222	0.464321	0.77068
0	C	0.805697	0.56394	0.392992
0	C	0.155705	0.406266	0.651779
0	C	0.789305	0.554316	0.487945
0	C	0.172044	0.415161	0.556865
0	C	0.587598	0.324331	0.54809
0	C	0.374898	0.644121	0.495546
0	H	0.598244	0.324384	0.621193
0	H	0.3646	0.643138	0.422591
0	H	0.626446	0.236649	0.537844
0	H	0.335751	0.732055	0.50507
0	H	0.480934	0.34025	0.532446
0	H	0.48137	0.628555	0.511398
0	C	0.849085	0.626864	0.540313
0	C	0.111668	0.342682	0.504772
0	H	0.821947	0.612657	0.612516
0	H	0.137319	0.357692	0.432259
0	H	0.817123	0.718865	0.51342
0	H	0.14477	0.250641	0.53101
0	H	0.957875	0.610792	0.53758
0	H	0.00295273	0.357948	0.508607
0	C	0.593128	0.357167	0.344675
0	C	0.369726	0.613017	0.698586
0	C	0.459443	0.365709	0.327842
0	C	0.50342	0.604106	0.715652
0	H	0.377136	0.418087	0.354262
0	H	0.585516	0.550451	0.690234
0	C	0.449255	0.29012	0.265214
0	C	0.513809	0.681443	0.776821
0	C	0.328089	0.272692	0.222305
0	C	0.634925	0.699365	0.819464
0	C	0.0921837	0.344495	0.212538
0	C	0.870812	0.627267	0.829549
0	H	0.0906466	0.265927	0.184583
0	H	0.871728	0.705184	0.858523
0	H	0.0273203	0.346307	0.272181
0	H	0.935637	0.626868	0.769764
0	C	0.0660047	0.452863	0.141563
0	C	0.897706	0.517902	0.899434
0	H	0.0887619	0.526996	0.167869
0	H	0.876031	0.44422	0.872016
0	H	0.962227	0.47279	0.119337
0	H	0.00135747	0.49836	0.921931
0	H	0.126992	0.445213	0.0813999
0	H	0.836208	0.523917	0.959573
0	C	0.801951	0.239813	0.284175
0	C	0.161088	0.732368	0.75734
0	C	0.847722	0.200953	0.199373
0	C	0.115037	0.769929	0.842556
0	C	0.933955	0.0957642	0.205606
0	C	0.0281818	0.874712	0.836968
0	H	0.96036	0.0423996	0.271879
0	H	0.00166741	0.928675	0.770914
0	C	0.986703	0.0601797	0.127352
0	C	0.975132	0.90922	0.915528
0	H	0.055095	0.978207	0.133386
0	H	0.906237	0.990874	0.909919
0	C	0.954022	0.1282	0.0422512
0	C	0.00814439	0.84053	0.000330459
0	H	0.997072	0.100768	0.980828
0	H	0.965068	0.867235	0.0620025
0	C	0.867066	0.232336	0.0348298
0	C	0.0955222	0.736688	0.00710765
0	H	0.841209	0.285303	0.968547
0	H	0.121495	0.683124	0.0731558
0	C	0.814972	0.26703	0.113381
0	C	0.147902	0.703058	0.928256
0	C	0.889387	0.638837	0.341853
0	C	0.0716414	0.331534	0.702672
0	C	0.0255393	0.626383	0.335352
0	C	0.935487	0.344343	0.709405
0	H	0.100147	0.560109	0.371383
0	H	0.860935	0.411605	0.674307
0	C	0.0518712	0.721936	0.26833
0	C	0.909038	0.247361	0.774865
0	C	0.181768	0.745974	0.23393
0	C	0.779099	0.222755	0.808662
0	C	0.412337	0.660199	0.231361
0	C	0.548465	0.308493	0.811713
0	H	0.472995	0.607389	0.288899
0	H	0.487774	0.361218	0.754169
0	H	0.430585	0.749791	0.220695
0	H	0.530407	0.218822	0.822536
0	C	0.425909	0.609294	0.146315
0	C	0.534675	0.359775	0.896571
0	H	0.404303	0.521204	0.15887
0	H	0.556066	0.447914	0.883836
0	H	0.526391	0.606528	0.11927
0	H	0.434257	0.362511	0.923606
0	H	0.358093	0.659083	0.0922479
0	H	0.602554	0.310248	0.950752
0	C	0.697698	0.78938	0.258635
0	C	0.263239	0.17938	0.783829
0	C	0.670812	0.87163	0.172429
0	C	0.290525	0.0977443	0.870276
0	C	0.701794	0.839231	0.0886334
0	C	0.259645	0.130727	0.953936
0	C	0.674755	0.916065	0.0074026
0	C	0.286648	0.0544053	0.0353712
0	H	0.696923	0.888567	0.942242
0	H	0.264615	0.0824784	0.10033
0	C	0.616409	0.0291723	0.0104153
0	C	0.344769	0.941058	0.0328058
0	H	0.596714	0.090911	0.946809
0	H	0.364299	0.879651	0.0966066
0	C	0.583332	0.0630875	0.0931681
0	C	0.377792	0.906595	0.950289
0	H	0.534412	0.150748	0.095412
0	H	0.426527	0.818822	0.948322
0	C	0.609947	0.984732	0.174245
0	C	0.351354	0.984555	0.868933
0	H	0.583582	0.0117039	0.238692
0	H	0.377817	0.957201	0.804629
0	N	0.717674	0.477433	0.534798
0	N	0.244213	0.491356	0.50975
0	N	0.65945	0.276321	0.292641
0	N	0.303682	0.695816	0.748964
0	N	0.570633	0.237241	0.244969
0	N	0.392551	0.735638	0.796035
0	N	0.837376	0.741332	0.279489
0	N	0.123436	0.227559	0.763401
0	N	0.937312	0.790039	0.235534
0	N	0.0234917	0.178182	0.80664
0	O	0.221914	0.338853	0.253768
0	O	0.741099	0.632856	0.788336
0	O	0.317529	0.212387	0.167642
0	O	0.645457	0.760209	0.873723
0	O	0.871956	0.245726	0.34598
0	O	0.091354	0.72743	0.695119
0	O	0.278445	0.655892	0.267152
0	O	0.682349	0.313007	0.775987
0	O	0.205406	0.830522	0.182524
0	O	0.755549	0.137514	0.859196
0	O	0.617224	0.757535	0.312709
0	O	0.343265	0.210749	0.729211
