#******************************************
#
# CIF file created by Zeo++
# Zeo++ is an open source package to
# analyze microporous materials
#
#*******************************************

_cell_length_a		10.7193(0)
_cell_length_b		9.12247(0)
_cell_length_c		21.5686(0)
_cell_angle_alpha		90(0)
_cell_angle_beta		102.497(0)
_cell_angle_gamma		90(0)

_symmetry_space_group_name_H-M		'P1'
_symmetry_Int_Tables_number		1
_symmetry_cell_setting		Monoclinic

loop_
_symmetry_equiv_pos_as_xyz
'+x,+y,+z'

loop_
_atom_site_label
_atom_site_type_symbol
_atom_site_fract_x
_atom_site_fract_y
_atom_site_fract_z
0	O	0.121117	0.294984	0.719252
0	O	0.92053	0.794879	0.309345
0	O	0.139702	0.403055	0.818879
0	O	0.901496	0.902073	0.209494
0	O	0.321116	0.605699	0.692313
0	O	0.720004	0.105394	0.335954
0	O	0.480164	0.393418	0.815728
0	O	0.561221	0.89312	0.213002
0	O	0.774867	0.163461	0.821435
0	O	0.266723	0.663704	0.207078
0	O	0.880671	0.200419	0.942706
0	O	0.161091	0.700326	0.0859474
0	H	0.932544	0.11038	0.958437
0	H	0.10911	0.610547	0.0699602
0	O	0.0424449	0.480957	0.00726719
0	O	0.999256	0.979977	0.0209185
0	C	0.232671	0.387568	0.728411
0	C	0.808783	0.887136	0.300116
0	H	0.312035	0.316499	0.720257
0	H	0.729622	0.815865	0.308331
0	C	0.2548	0.441067	0.798471
0	C	0.786573	0.940404	0.230009
0	H	0.262934	0.562625	0.802467
0	H	0.778543	0.0619264	0.225971
0	C	0.206347	0.515442	0.679002
0	C	0.834855	0.0152654	0.349432
0	C	0.428967	0.550746	0.669236
0	C	0.612126	0.0507929	0.359098
0	H	0.499218	0.638796	0.682589
0	H	0.542035	0.13901	0.345765
0	H	0.404955	0.537118	0.617597
0	H	0.636161	0.0371914	0.410731
0	H	0.463142	0.447934	0.693249
0	H	0.577679	0.947988	0.3351
0	C	0.370497	0.365234	0.843596
0	C	0.670704	0.864578	0.185003
0	C	0.530448	0.54055	0.821601
0	C	0.510567	0.0401495	0.206939
0	H	0.613158	0.530621	0.799426
0	H	0.428083	0.0301761	0.229278
0	H	0.562362	0.573088	0.871763
0	H	0.478327	0.0721222	0.156731
0	H	0.459693	0.617459	0.795419
0	H	0.581262	0.117428	0.232892
0	C	0.101091	0.616696	0.691148
0	C	0.940008	0.11676	0.337305
0	C	0.128672	0.759254	0.714143
0	C	0.912188	0.259291	0.314331
0	H	0.226849	0.800126	0.722934
0	H	0.813934	0.299902	0.30556
0	C	0.0303266	0.84924	0.725337
0	C	0.0103083	0.349601	0.303107
0	H	0.0520335	0.960236	0.743506
0	H	0.988354	0.460561	0.284942
0	C	0.904616	0.797545	0.713262
0	C	0.136114	0.29821	0.315143
0	H	0.828299	0.868095	0.72203
0	H	0.212237	0.368914	0.306356
0	C	0.87683	0.655567	0.689816
0	C	0.164181	0.156269	0.338592
0	H	0.778984	0.615277	0.680215
0	H	0.262099	0.116193	0.348169
0	C	0.974695	0.565269	0.678551
0	C	0.0664848	0.0656994	0.349874
0	H	0.953348	0.454671	0.659841
0	H	0.0880489	0.955131	0.368565
0	C	0.177057	0.467956	0.609766
0	C	0.863978	0.967934	0.4187
0	C	0.160442	0.579061	0.563439
0	C	0.880243	0.0791993	0.464948
0	H	0.167489	0.693768	0.578307
0	H	0.873042	0.193856	0.449991
0	C	0.13511	0.543388	0.499053
0	C	0.90543	0.0437887	0.529368
0	H	0.121354	0.630193	0.463504
0	H	0.918913	0.130765	0.564833
0	C	0.12646	0.396253	0.480236
0	C	0.914223	0.896669	0.548248
0	H	0.106454	0.367831	0.429894
0	H	0.934116	0.868385	0.59861
0	C	0.14265	0.285742	0.526074
0	C	0.89838	0.785988	0.50252
0	H	0.135579	0.171051	0.511445
0	H	0.905545	0.67129	0.517149
0	C	0.167068	0.321122	0.590737
0	C	0.874137	0.821143	0.437845
0	H	0.17648	0.233134	0.625776
0	H	0.864986	0.733025	0.402833
0	C	0.395833	0.418872	0.911966
0	C	0.645227	0.918067	0.116608
0	C	0.513667	0.380723	0.951488
0	C	0.527606	0.879389	0.0770434
0	H	0.581677	0.314842	0.932271
0	H	0.459853	0.812958	0.0962132
0	C	0.5434	0.426168	0.014703
0	C	0.497751	0.925016	0.0138529
0	H	0.635232	0.396333	0.0450586
0	H	0.406084	0.894749	0.983459
0	C	0.455953	0.509901	0.0392525
0	C	0.584792	0.00954846	0.989371
0	H	0.479579	0.545941	0.0886559
0	H	0.561017	0.045783	0.939999
0	C	0.338061	0.546137	0.000361124
0	C	0.702499	0.0463784	0.0283147
0	H	0.26845	0.609111	0.0198493
0	H	0.771759	0.110079	0.0088867
0	C	0.307504	0.50028	0.936935
0	C	0.733239	0.000182687	0.0916786
0	H	0.213127	0.526732	0.907966
0	H	0.827536	0.0270018	0.120658
0	C	0.358597	0.19857	0.842469
0	C	0.682721	0.697858	0.186109
0	C	0.444782	0.110871	0.818658
0	C	0.596915	0.610041	0.210134
0	H	0.52241	0.162539	0.800989
0	H	0.519523	0.661692	0.227988
0	C	0.433055	0.958267	0.819002
0	C	0.608633	0.457431	0.209751
0	H	0.500514	0.890652	0.800638
0	H	0.541521	0.389637	0.228286
0	C	0.335663	0.892694	0.843176
0	C	0.705652	0.391911	0.185285
0	H	0.32687	0.773668	0.843789
0	H	0.714491	0.272909	0.184635
0	C	0.24964	0.980054	0.867073
0	C	0.791262	0.479375	0.161138
0	H	0.173303	0.929168	0.885652
0	H	0.867219	0.428318	0.142319
0	C	0.26151	0.132533	0.867126
0	C	0.779436	0.631798	0.161137
0	H	0.196046	0.201259	0.886897
0	H	0.844636	0.700485	0.141155
0	C	0.750851	0.126641	0.756847
0	C	0.290662	0.626507	0.271622
0	H	0.66161	0.0723241	0.740892
0	H	0.379921	0.572203	0.287539
0	C	0.849624	0.171237	0.730318
0	C	0.191777	0.670765	0.298156
0	H	0.859477	0.15907	0.682072
0	H	0.18176	0.658237	0.346359
0	C	0.941826	0.240225	0.780272
0	C	0.0996371	0.739896	0.248236
0	C	0.893692	0.234075	0.834434
0	C	0.14782	0.734114	0.194089
0	C	0.937795	0.288025	0.901305
0	C	0.10361	0.787919	0.127207
0	H	0.0445278	0.28339	0.915966
0	H	0.996836	0.782943	0.112496
0	C	0.886963	0.443864	0.909659
0	C	0.154161	0.943868	0.118811
0	H	0.77992	0.436916	0.897476
0	H	0.26119	0.937219	0.131114
0	C	0.932282	0.49643	0.977947
0	C	0.109169	0.996169	0.0504614
0	C	0.835892	0.575719	0.00706032
0	C	0.205623	0.0756843	0.0214758
0	H	0.769928	0.494658	0.0216588
0	H	0.271721	0.994528	0.0070237
0	H	0.88452	0.630922	0.0516305
0	H	0.157145	0.130512	0.976814
0	C	0.759557	0.688963	0.961635
0	C	0.281476	0.189273	0.0668967
0	H	0.678641	0.634953	0.928465
0	H	0.362436	0.1357	0.100148
0	H	0.714123	0.766426	0.989905
0	H	0.326811	0.267069	0.038719
0	C	0.84307	0.774421	0.924705
0	C	0.197448	0.274604	0.103624
0	H	0.802607	0.886207	0.914583
0	H	0.237634	0.386552	0.113741
0	H	0.939139	0.793692	0.955378
0	H	0.101482	0.29352	0.072804
0	C	0.855055	0.702477	0.86204
0	C	0.185352	0.202682	0.166287
0	H	0.900593	0.782253	0.834845
0	H	0.139553	0.282387	0.193397
0	H	0.758463	0.682509	0.83236
0	H	0.281847	0.18308	0.195993
0	C	0.932626	0.559884	0.867793
0	C	0.108037	0.0599165	0.160501
0	H	0.0361424	0.582134	0.886111
0	H	0.00452961	0.0818123	0.142065
0	H	0.926968	0.515384	0.819323
0	H	0.113479	0.0155553	0.20899
0	B	0.066994	0.310976	0.772516
0	B	0.974432	0.810545	0.256009
