#******************************************
#
# CIF file created by Zeo++
# Zeo++ is an open source package to
# analyze microporous materials
#
#*******************************************

_cell_length_a		15.7523(0)
_cell_length_b		15.628(0)
_cell_length_c		14.8707(0)
_cell_angle_alpha		90(0)
_cell_angle_beta		90(0)
_cell_angle_gamma		120.056(0)

_symmetry_space_group_name_H-M		'P1'
_symmetry_Int_Tables_number		1
_symmetry_cell_setting		Monoclinic

loop_
_symmetry_equiv_pos_as_xyz
'+x,+y,+z'

loop_
_atom_site_label
_atom_site_type_symbol
_atom_site_fract_x
_atom_site_fract_y
_atom_site_fract_z
0	N	0.338496	0.874757	0.12081
0	N	0.136969	0.474934	0.121747
0	N	0.536819	0.673002	0.121057
0	N	0.668626	0.139715	0.849399
0	N	0.870101	0.539653	0.848717
0	N	0.470121	0.341384	0.849278
0	N	0.28713	0.915443	0.120293
0	N	0.0967261	0.382403	0.120883
0	N	0.628639	0.724355	0.119664
0	N	0.71986	0.0988972	0.850027
0	N	0.910335	0.632184	0.84952
0	N	0.378301	0.29005	0.850666
0	N	0.23075	0.93984	0.11338
0	N	0.072373	0.301114	0.11384
0	N	0.709343	0.780831	0.111945
0	N	0.776156	0.0743856	0.856995
0	N	0.93463	0.713461	0.85652
0	N	0.297592	0.233583	0.858346
0	N	0.218058	0.280705	0.349222
0	N	0.728085	0.946062	0.351056
0	N	0.0595045	0.792138	0.350032
0	N	0.789052	0.733804	0.621075
0	N	0.278869	0.068419	0.619204
0	N	0.947415	0.222161	0.620427
0	O	0.574781	0.889497	0.169598
0	O	0.119316	0.696972	0.169125
0	O	0.315039	0.433758	0.168155
0	O	0.432273	0.12491	0.800775
0	O	0.887741	0.317588	0.801458
0	O	0.691932	0.58065	0.802216
0	O	0.390485	0.997441	0.278949
0	O	0.0154082	0.40397	0.280248
0	O	0.605639	0.621428	0.280399
0	O	0.616539	0.0169885	0.691362
0	O	0.99164	0.61052	0.690229
0	O	0.401304	0.392947	0.689918
0	O	0.52939	0.120002	0.340229
0	O	0.892924	0.421159	0.339237
0	O	0.588546	0.479767	0.337193
0	O	0.477575	0.894331	0.63026
0	O	0.114231	0.593407	0.631361
0	O	0.418362	0.534621	0.63322
0	O	0.164402	0.27157	0.429573
0	O	0.726329	0.903119	0.436407
0	O	0.102981	0.84938	0.429195
0	O	0.842347	0.742692	0.540536
0	O	0.280533	0.111225	0.5338
0	O	0.903974	0.165015	0.541214
0	O	0.251769	0.364864	0.406146
0	O	0.637917	0.897565	0.39933
0	O	0.107525	0.759956	0.41104
0	O	0.755161	0.64944	0.564394
0	O	0.368986	0.116839	0.570838
0	O	0.899285	0.25433	0.559541
0	O	0.476321	0.0747203	0.0854402
0	O	0.938048	0.410865	0.0867091
0	O	0.599062	0.535641	0.0874408
0	O	0.530907	0.939916	0.885118
0	O	0.0690882	0.603828	0.88358
0	O	0.407946	0.478691	0.88312
0	C	0.474821	0.850705	0.138327
0	C	0.158837	0.635753	0.138519
0	C	0.376536	0.535003	0.138053
0	C	0.532257	0.163741	0.832015
0	C	0.848201	0.378805	0.832036
0	C	0.630416	0.479382	0.832255
0	H	0.435609	0.779217	0.174211
0	H	0.229846	0.668836	0.174403
0	H	0.344082	0.573598	0.174322
0	H	0.571439	0.235207	0.796093
0	H	0.777194	0.3457	0.796155
0	H	0.662848	0.440798	0.795936
0	H	0.47317	0.837725	0.0648505
0	H	0.171639	0.646689	0.065013
0	H	0.365841	0.53757	0.0646011
0	H	0.533942	0.17675	0.905487
0	H	0.835398	0.367888	0.905542
0	H	0.641123	0.476767	0.905699
0	C	0.437139	0.922561	0.161616
0	C	0.0886407	0.525714	0.162322
0	C	0.485523	0.573631	0.16202
0	C	0.569922	0.0918822	0.808711
0	C	0.918402	0.488831	0.808187
0	C	0.521424	0.440762	0.808315
0	C	0.508213	0.0245371	0.116085
0	C	0.987037	0.493614	0.116943
0	C	0.516817	0.502685	0.117166
0	C	0.498898	0.989929	0.854325
0	C	0.020044	0.521003	0.853527
0	C	0.490134	0.511686	0.853228
0	C	0.685208	0.146513	0.0875215
0	C	0.864174	0.547236	0.0881326
0	C	0.462656	0.324924	0.0886085
0	C	0.321909	0.867892	0.88287
0	C	0.142925	0.467424	0.882343
0	C	0.544294	0.689459	0.881792
0	H	0.663274	0.199488	0.0658724
0	H	0.812334	0.471673	0.0669009
0	H	0.537625	0.347891	0.0677321
0	H	0.34383	0.814907	0.904525
0	H	0.194767	0.543004	0.903542
0	H	0.469326	0.666495	0.902667
0	C	0.783231	0.171947	0.0882073
0	C	0.837561	0.619529	0.088512
0	C	0.390497	0.225869	0.0890251
0	C	0.223886	0.842462	0.882212
0	C	0.169555	0.395145	0.88194
0	C	0.616464	0.788512	0.881414
0	H	0.840056	0.246151	0.0678846
0	H	0.763508	0.601253	0.0684565
0	H	0.408257	0.169188	0.0692451
0	H	0.167072	0.76826	0.902558
0	H	0.243636	0.413457	0.901948
0	H	0.598708	0.845174	0.901283
0	C	0.810564	0.102886	0.115546
0	C	0.905295	0.716809	0.115177
0	C	0.294037	0.197334	0.115351
0	C	0.196525	0.911487	0.854845
0	C	0.101833	0.297853	0.855318
0	C	0.712907	0.81706	0.85502
0	H	0.888098	0.123767	0.115254
0	H	0.883439	0.773185	0.114604
0	H	0.237803	0.118929	0.114953
0	H	0.118997	0.890614	0.855158
0	H	0.123691	0.24148	0.855887
0	H	0.769142	0.895467	0.855396
0	C	0.739993	0.0082725	0.142373
0	C	0.999714	0.74206	0.141629
0	C	0.269422	0.267683	0.14125
0	C	0.267086	0.00608576	0.827953
0	C	0.00739761	0.272572	0.828914
0	C	0.73748	0.746703	0.829051
0	H	0.759679	0.953694	0.163715
0	H	0.0534128	0.817054	0.162269
0	H	0.195047	0.247122	0.161587
0	H	0.247369	0.0606333	0.806587
0	H	0.953712	0.197572	0.808283
0	H	0.81184	0.767271	0.808642
0	C	0.641201	0.983666	0.140964
0	C	0.025454	0.668076	0.140772
0	C	0.343235	0.367604	0.140267
0	C	0.365884	0.0307198	0.82937
0	C	0.981615	0.346525	0.829799
0	C	0.663684	0.646778	0.830067
0	C	0.611472	0.0512788	0.114907
0	C	0.959201	0.569893	0.115349
0	C	0.440622	0.398474	0.115352
0	C	0.395626	0.963115	0.855444
0	C	0.0478664	0.444721	0.855198
0	C	0.566303	0.615904	0.854999
0	C	0.436507	0.936726	0.265452
0	C	0.0749829	0.511271	0.266216
0	C	0.499426	0.57487	0.266049
0	C	0.57047	0.0776616	0.704875
0	C	0.932081	0.503222	0.70429
0	C	0.50752	0.43952	0.704295
0	H	0.513403	0.977259	0.291416
0	H	0.0342717	0.547721	0.292043
0	H	0.462429	0.497527	0.292426
0	H	0.493562	0.0370795	0.678965
0	H	0.972803	0.466774	0.678496
0	H	0.544508	0.516848	0.677887
0	C	0.372572	0.841321	0.317994
0	C	0.16995	0.543554	0.318576
0	C	0.468377	0.639711	0.317337
0	C	0.634324	0.17305	0.652278
0	C	0.837116	0.470899	0.651935
0	C	0.538546	0.374655	0.653012
0	H	0.294918	0.808133	0.295871
0	H	0.202939	0.498274	0.297417
0	H	0.514237	0.718045	0.295555
0	H	0.711996	0.206323	0.674385
0	H	0.804088	0.516147	0.673087
0	H	0.492674	0.296323	0.674798
0	H	0.395788	0.786708	0.302032
0	H	0.223882	0.621383	0.301356
0	H	0.391457	0.616927	0.299677
0	H	0.611024	0.227602	0.668223
0	H	0.783212	0.393063	0.669168
0	H	0.615466	0.397429	0.670679
0	C	0.378912	0.859683	0.419071
0	C	0.152385	0.533597	0.419782
0	C	0.477733	0.633053	0.418758
0	C	0.627958	0.154643	0.551211
0	C	0.854646	0.480823	0.550723
0	C	0.529187	0.381297	0.551593
0	H	0.334836	0.790476	0.456263
0	H	0.221266	0.559162	0.456789
0	H	0.452475	0.677576	0.454738
0	H	0.672126	0.223805	0.513983
0	H	0.785765	0.455379	0.513758
0	H	0.554297	0.336648	0.515621
0	H	0.350719	0.909009	0.437115
0	H	0.103491	0.456156	0.439051
0	H	0.554453	0.661389	0.4385
0	H	0.656	0.105186	0.533191
0	H	0.903646	0.558233	0.531429
0	H	0.452483	0.353087	0.531876
0	H	0.454072	0.892895	0.444937
0	H	0.119658	0.576634	0.444717
0	H	0.434698	0.5573	0.444377
0	H	0.55281	0.121552	0.525352
0	H	0.887216	0.437651	0.525763
0	H	0.572322	0.457022	0.525931
0	C	0.444531	0.0888418	0.319084
0	C	0.923997	0.366737	0.318781
0	C	0.642449	0.56589	0.317732
0	C	0.562465	0.925539	0.651332
0	C	0.0830553	0.647775	0.65171
0	C	0.364472	0.448478	0.652621
0	C	0.384238	0.136589	0.330076
0	C	0.875309	0.257992	0.329457
0	C	0.750243	0.626282	0.328677
0	C	0.622747	0.877785	0.64032
0	C	0.131694	0.756507	0.640949
0	C	0.256686	0.38808	0.641677
0	C	0.433217	0.239649	0.341408
0	C	0.772997	0.205908	0.340814
0	C	0.803036	0.576474	0.339857
0	C	0.573786	0.774727	0.629012
0	C	0.234009	0.808609	0.629554
0	C	0.203876	0.437882	0.630522
0	H	0.513611	0.28276	0.341277
0	H	0.731802	0.245369	0.340705
0	H	0.764941	0.495463	0.339182
0	H	0.493394	0.731612	0.629169
0	H	0.2752	0.769143	0.629657
0	H	0.241973	0.518896	0.631185
0	C	0.379465	0.287807	0.352661
0	C	0.723369	0.10349	0.3522
0	C	0.90457	0.630212	0.351683
0	C	0.627546	0.726579	0.617739
0	C	0.283611	0.911015	0.618129
0	C	0.102348	0.384152	0.618742
0	H	0.418324	0.368279	0.361176
0	H	0.643527	0.0633682	0.360931
0	H	0.945213	0.590775	0.360302
0	H	0.588699	0.646108	0.609237
0	H	0.363448	0.951156	0.609347
0	H	0.0616828	0.42357	0.610164
0	C	0.27675	0.232197	0.351747
0	C	0.776854	0.0539236	0.351412
0	C	0.952535	0.733777	0.351367
0	C	0.730264	0.782216	0.618618
0	C	0.230092	0.96055	0.618929
0	C	0.0543871	0.280583	0.619061
0	C	0.227127	0.128893	0.341562
0	C	0.879308	0.105458	0.34082
0	C	0.900228	0.784228	0.340927
0	C	0.779879	0.885528	0.628783
0	C	0.12765	0.90901	0.629541
0	C	0.106686	0.230125	0.629465
0	H	0.147214	0.0865627	0.341464
0	H	0.919768	0.0657058	0.340663
0	H	0.938533	0.864779	0.341344
0	H	0.859795	0.927879	0.628848
0	H	0.0871639	0.948737	0.629696
0	H	0.068382	0.149573	0.629051
0	C	0.281268	0.0811866	0.330305
0	C	0.928499	0.207887	0.329498
0	C	0.798735	0.730063	0.329103
0	C	0.72572	0.933211	0.640053
0	C	0.0784717	0.806576	0.640879
0	C	0.208195	0.284304	0.641256
0	H	0.243625	0.000625768	0.32191
0	H	0.00843221	0.249217	0.32095
0	H	0.756766	0.768218	0.320357
0	H	0.763345	0.0137741	0.648436
0	H	0.998541	0.765234	0.649407
0	H	0.25015	0.246133	0.649981
