#******************************************
#
# CIF file created by Zeo++
# Zeo++ is an open source package to
# analyze microporous materials
#
#*******************************************

_cell_length_a		16.6808(0)
_cell_length_b		18.2889(0)
_cell_length_c		11.3889(0)
_cell_angle_alpha		90(0)
_cell_angle_beta		101.374(0)
_cell_angle_gamma		90(0)

_symmetry_space_group_name_H-M		'P1'
_symmetry_Int_Tables_number		1
_symmetry_cell_setting		Monoclinic

loop_
_symmetry_equiv_pos_as_xyz
'+x,+y,+z'

loop_
_atom_site_label
_atom_site_type_symbol
_atom_site_fract_x
_atom_site_fract_y
_atom_site_fract_z
0	O	0.171834	0.0873119	0.168381
0	O	0.83564	0.0870274	0.330814
0	O	0.836965	0.911036	0.831714
0	O	0.173137	0.911283	0.669143
0	O	0.672126	0.587099	0.16838
0	O	0.335345	0.586823	0.330804
0	O	0.336675	0.411248	0.831717
0	O	0.673433	0.411493	0.669158
0	O	0.475346	0.167549	0.0815767
0	O	0.532724	0.168962	0.417967
0	O	0.533434	0.830755	0.918428
0	O	0.476052	0.829346	0.582021
0	O	0.975662	0.667241	0.0815258
0	O	0.0324123	0.668661	0.418002
0	O	0.0331214	0.331062	0.918479
0	O	0.97637	0.329646	0.581987
0	C	0.254137	0.0992892	0.155364
0	C	0.753421	0.0993951	0.343922
0	C	0.754653	0.899044	0.844679
0	C	0.255355	0.898908	0.656047
0	C	0.754423	0.599088	0.1554
0	C	0.253133	0.599201	0.343871
0	C	0.254369	0.399247	0.844643
0	C	0.755644	0.399103	0.656101
0	C	0.259368	0.163914	0.0881135
0	C	0.748648	0.164031	0.411356
0	C	0.749408	0.834377	0.911818
0	C	0.260133	0.834265	0.588644
0	C	0.759668	0.663676	0.0880356
0	C	0.248347	0.663794	0.411414
0	C	0.249104	0.334621	0.911892
0	C	0.76043	0.334499	0.588582
0	C	0.143021	0.254582	0.995464
0	C	0.865814	0.253904	0.50467
0	C	0.86575	0.743701	0.00447129
0	C	0.142972	0.744395	0.495333
0	C	0.643293	0.754323	0.995392
0	C	0.365542	0.753646	0.504722
0	C	0.365484	0.243967	0.00453843
0	C	0.643244	0.244649	0.495274
0	C	0.397909	0.0757371	0.17849
0	C	0.609476	0.0766587	0.32087
0	C	0.610873	0.922577	0.821547
0	C	0.399303	0.921652	0.679116
0	C	0.898218	0.575513	0.178466
0	C	0.109166	0.576436	0.320875
0	C	0.110564	0.422807	0.821566
0	C	0.899615	0.421867	0.679102
0	H	0.453551	0.0444759	0.212282
0	H	0.553678	0.04564	0.287051
0	H	0.555227	0.953839	0.787772
0	H	0.455107	0.952671	0.712935
0	H	0.953935	0.544272	0.212091
0	H	0.0532873	0.545447	0.287232
0	H	0.0548372	0.454039	0.787967
0	H	0.955493	0.452867	0.712751
0	C	0.0420093	0.156598	0.0945482
0	C	0.965959	0.155609	0.404718
0	C	0.966772	0.841711	0.905463
0	C	0.0428165	0.842697	0.595262
0	C	0.54235	0.656289	0.0945612
0	C	0.465618	0.655304	0.404694
0	C	0.466437	0.342021	0.905451
0	C	0.543162	0.343002	0.595286
0	H	0.00590778	0.117195	0.133774
0	H	0.00168057	0.116064	0.365115
0	H	0.00287706	0.881123	0.866255
0	H	0.00708078	0.882239	0.634852
0	H	0.50631	0.616852	0.133772
0	H	0.501283	0.615727	0.365102
0	H	0.502475	0.381472	0.866257
0	H	0.507484	0.382578	0.634866
0	C	0.334995	0.184451	0.0657633
0	C	0.673162	0.185006	0.433704
0	C	0.67378	0.813828	0.934156
0	C	0.335616	0.81329	0.566302
0	C	0.835301	0.684169	0.065671
0	C	0.17285	0.684727	0.433779
0	C	0.173473	0.314115	0.934243
0	C	0.835928	0.313563	0.566219
0	C	0.450967	0.232891	0.015944
0	C	0.557703	0.234061	0.483958
0	C	0.557811	0.765393	0.984025
0	C	0.451086	0.764247	0.516043
0	C	0.951234	0.73259	0.0159501
0	C	0.0574337	0.733761	0.483934
0	C	0.0575431	0.265697	0.984014
0	C	0.951357	0.264541	0.516066
0	C	0.309976	0.986142	0.274804
0	C	0.696572	0.986421	0.224542
0	C	0.69879	0.0121734	0.7252
0	C	0.312192	0.0118859	0.775426
0	C	0.810474	0.486015	0.275101
0	C	0.196069	0.486299	0.224228
0	C	0.19829	0.512303	0.724902
0	C	0.812694	0.512007	0.775736
0	C	0.403227	0.139329	0.111808
0	C	0.604573	0.14031	0.387551
0	C	0.605548	0.858961	0.888152
0	C	0.404202	0.857991	0.612447
0	C	0.903541	0.639047	0.111721
0	C	0.104262	0.640034	0.387622
0	C	0.105234	0.359243	0.888239
0	C	0.904516	0.358269	0.612378
0	C	0.126441	0.145813	0.106981
0	C	0.881456	0.145255	0.392455
0	C	0.882341	0.852488	0.893022
0	C	0.127328	0.853056	0.607536
0	C	0.626775	0.645582	0.106926
0	C	0.381118	0.645031	0.392496
0	C	0.382005	0.35272	0.893076
0	C	0.627662	0.353282	0.607495
0	C	0.32182	0.0542468	0.201845
0	C	0.685414	0.0547043	0.297506
0	C	0.68696	0.944077	0.798192
0	C	0.323368	0.943604	0.702473
0	C	0.822121	0.554109	0.201958
0	C	0.18511	0.55457	0.297377
0	C	0.186658	0.444217	0.798076
0	C	0.823666	0.443736	0.702599
0	C	0.17812	0.193717	0.0577669
0	C	0.830116	0.19336	0.441934
0	C	0.830646	0.804557	0.942142
0	C	0.178664	0.804938	0.558076
0	C	0.678441	0.693473	0.0576804
0	C	0.329797	0.693128	0.442008
0	C	0.330331	0.304799	0.942233
0	C	0.678988	0.305176	0.558006
0	C	0.594851	0.264834	0.987172
0	C	0.414304	0.265956	0.514088
0	C	0.413925	0.73345	0.0127704
0	C	0.594482	0.732336	0.485894
0	C	0.0950981	0.764366	0.987268
0	C	0.914051	0.765492	0.513985
0	C	0.913676	0.233916	0.0126752
0	C	0.0947346	0.232803	0.485997
0	C	0.503077	0.280895	0.968863
0	C	0.506009	0.282139	0.531664
0	C	0.505703	0.717396	0.0310933
0	C	0.502773	0.716164	0.468339
0	C	0.00336277	0.78056	0.968925
0	C	0.00571592	0.78181	0.531593
0	C	0.00541131	0.217727	0.0310337
0	C	0.00306706	0.216493	0.468407
0	C	0.628801	0.255861	0.122175
0	C	0.37965	0.256838	0.379279
0	C	0.379981	0.742415	0.877766
0	C	0.629154	0.741466	0.620697
0	C	0.129156	0.755289	0.122217
0	C	0.879288	0.756272	0.379232
0	C	0.879626	0.242986	0.877725
0	C	0.129513	0.242034	0.620747
0	H	0.694737	0.24537	0.140757
0	H	0.313756	0.246187	0.361544
0	H	0.314057	0.752964	0.859197
0	H	0.695023	0.752241	0.638407
0	H	0.19509	0.744793	0.140544
0	H	0.813399	0.745616	0.36176
0	H	0.813705	0.25354	0.859411
0	H	0.19538	0.252808	0.638198
0	H	0.600097	0.209786	0.160251
0	H	0.408139	0.210796	0.340741
0	H	0.408731	0.788444	0.839641
0	H	0.600564	0.787426	0.659288
0	H	0.100548	0.709144	0.160276
0	H	0.907684	0.710163	0.340715
0	H	0.908281	0.289083	0.839618
0	H	0.10102	0.288066	0.659315
0	H	0.618403	0.304909	0.172304
0	H	0.389584	0.305878	0.328805
0	H	0.39031	0.693336	0.827669
0	H	0.619346	0.692373	0.671131
0	H	0.118814	0.804239	0.172586
0	H	0.889167	0.805215	0.328519
0	H	0.889899	0.194006	0.827386
0	H	0.119752	0.193041	0.67142
0	C	0.390024	0.943345	0.315059
0	C	0.616121	0.944103	0.184828
0	C	0.618725	0.0549409	0.684917
0	C	0.392635	0.0542151	0.815163
0	C	0.890839	0.443657	0.315244
0	C	0.11531	0.44442	0.184621
0	C	0.117909	0.554632	0.684734
0	C	0.893449	0.553897	0.815363
0	H	0.379213	0.894092	0.364972
0	H	0.626336	0.894709	0.134847
0	H	0.629516	0.104172	0.634933
0	H	0.382415	0.103588	0.865196
0	H	0.880721	0.394263	0.365311
0	H	0.124834	0.394893	0.134485
0	H	0.128009	0.604005	0.634595
0	H	0.88392	0.603404	0.865547
0	H	0.436216	0.975556	0.374982
0	H	0.57005	0.976551	0.125106
0	H	0.572549	0.0227034	0.625027
0	H	0.438714	0.021746	0.874836
0	H	0.936777	0.476273	0.374912
0	H	0.069495	0.47727	0.125161
0	H	0.0719879	0.521989	0.625102
0	H	0.939272	0.521027	0.874775
0	H	0.415942	0.925091	0.238879
0	H	0.590294	0.926114	0.261236
0	H	0.592785	0.0732194	0.761061
0	H	0.418432	0.0722342	0.73874
0	H	0.916806	0.425753	0.238923
0	H	0.0894348	0.426777	0.261164
0	H	0.0919223	0.57256	0.761022
0	H	0.919292	0.571568	0.738802
0	C	0.277913	0.0114954	0.385969
0	C	0.728352	0.0114515	0.112967
0	C	0.730817	0.986781	0.614026
0	C	0.280384	0.986845	0.886972
0	C	0.7783	0.511091	0.386306
0	C	0.227966	0.511051	0.112618
0	C	0.230429	0.487185	0.613688
0	C	0.780772	0.487247	0.887319
0	H	0.268521	0.964949	0.442443
0	H	0.737472	0.96478	0.0565709
0	H	0.740238	0.0332989	0.557511
0	H	0.27135	0.0335	0.943457
0	H	0.769025	0.464381	0.442558
0	H	0.23697	0.464217	0.0564481
0	H	0.239731	0.533868	0.557396
0	H	0.771848	0.534065	0.943577
0	H	0.218913	0.0397339	0.360862
0	H	0.787414	0.0396279	0.137553
0	H	0.789791	0.958495	0.639128
0	H	0.221271	0.95876	0.862358
0	H	0.71919	0.539124	0.361243
0	H	0.287141	0.539015	0.137162
0	H	0.289514	0.459105	0.638745
0	H	0.72155	0.459369	0.862746
0	H	0.320892	0.0489004	0.441127
0	H	0.685289	0.0488175	0.0578556
0	H	0.687808	0.949395	0.558895
0	H	0.323377	0.949384	0.941998
0	H	0.821018	0.548563	0.441696
0	H	0.185167	0.548486	0.0572694
0	H	0.187677	0.449733	0.558324
0	H	0.823504	0.44972	0.942587
0	C	0.246747	0.93634	0.19623
0	C	0.759569	0.936281	0.302832
0	C	0.762021	0.0620057	0.803717
0	C	0.249183	0.0620035	0.697115
0	C	0.747255	0.436032	0.196921
0	C	0.259051	0.435979	0.302134
0	C	0.261514	0.562311	0.803028
0	C	0.749702	0.562306	0.697813
0	H	0.235922	0.886598	0.244459
0	H	0.770198	0.886601	0.254302
0	H	0.772955	0.111655	0.755336
0	H	0.238594	0.111719	0.745591
0	H	0.736406	0.3864	0.245465
0	H	0.269698	0.386404	0.253297
0	H	0.272466	0.611855	0.754336
0	H	0.739086	0.611911	0.746604
0	H	0.267073	0.919514	0.114593
0	H	0.739107	0.919332	0.384315
0	H	0.741613	0.0789817	0.885218
0	H	0.269585	0.0788847	0.615551
0	H	0.767404	0.419058	0.115253
0	H	0.238768	0.418888	0.383651
0	H	0.241288	0.57943	0.884566
0	H	0.76993	0.579338	0.616224
0	H	0.187372	0.963766	0.169242
0	H	0.819054	0.963485	0.330072
0	H	0.821349	0.0345291	0.830921
0	H	0.189683	0.0348146	0.669993
0	H	0.68787	0.463459	0.169983
0	H	0.31855	0.463179	0.329312
0	H	0.320856	0.534836	0.830171
0	H	0.690193	0.535117	0.670737
0	C	0.64195	0.32647	0.938677
0	C	0.367483	0.327531	0.563164
0	C	0.366829	0.671805	0.0612426
0	C	0.641284	0.670748	0.436823
0	C	0.142119	0.826019	0.938683
0	C	0.86731	0.827086	0.563153
0	C	0.866657	0.172255	0.0612353
0	C	0.141456	0.171196	0.436836
0	H	0.707552	0.31406	0.954017
0	H	0.301959	0.314972	0.548716
0	H	0.301226	0.684211	0.0459239
0	H	0.706819	0.683277	0.451342
0	H	0.207743	0.813718	0.953871
0	H	0.801766	0.814639	0.548873
0	H	0.801035	0.184551	0.0460693
0	H	0.207013	0.183612	0.451193
0	H	0.635392	0.378744	0.982893
0	H	0.373624	0.379794	0.518679
0	H	0.373379	0.619537	0.01701
0	H	0.635091	0.618471	0.481235
0	H	0.135458	0.878277	0.982923
0	H	0.873552	0.879329	0.518632
0	H	0.873311	0.120005	0.0169818
0	H	0.135159	0.118938	0.481282
0	H	0.621934	0.334423	0.841854
0	H	0.388171	0.335341	0.659901
0	H	0.386851	0.663833	0.158061
0	H	0.620634	0.662974	0.340072
0	H	0.121939	0.833933	0.841864
0	H	0.888178	0.834862	0.659881
0	H	0.886844	0.164321	0.158047
0	H	0.12063	0.163458	0.340094
0	C	0.60499	0.193211	0.920371
0	C	0.40472	0.194356	0.581345
0	C	0.403768	0.80507	0.0795764
0	C	0.604056	0.803921	0.418591
0	C	0.105176	0.692688	0.920579
0	C	0.904531	0.693836	0.581126
0	C	0.90358	0.305591	0.0793677
0	C	0.104248	0.304444	0.418813
0	H	0.669547	0.178066	0.930568
0	H	0.340247	0.17921	0.572167
0	H	0.339201	0.820163	0.069468
0	H	0.668526	0.819114	0.427873
0	H	0.169732	0.677519	0.930889
0	H	0.84006	0.678657	0.571821
0	H	0.839016	0.320711	0.0691429
0	H	0.168714	0.319672	0.428215
0	H	0.580143	0.198229	0.824205
0	H	0.430175	0.199629	0.677296
0	H	0.428684	0.800073	0.175728
0	H	0.578678	0.798607	0.322628
0	H	0.0803338	0.697598	0.824408
0	H	0.92997	0.699001	0.677083
0	H	0.928487	0.300702	0.175522
0	H	0.0788897	0.29924	0.32284
0	H	0.573523	0.147674	0.954898
0	H	0.435855	0.148734	0.546439
0	H	0.435168	0.850623	0.044965
0	H	0.572831	0.849525	0.453388
0	H	0.0736859	0.647199	0.955219
0	H	0.935689	0.648262	0.546115
0	H	0.935005	0.351095	0.0446499
0	H	0.073005	0.350003	0.45372
