#******************************************
#
# CIF file created by Zeo++
# Zeo++ is an open source package to
# analyze microporous materials
#
#*******************************************

_cell_length_a		9.63712(0)
_cell_length_b		15.5557(0)
_cell_length_c		17.8475(0)
_cell_angle_alpha		100.729(0)
_cell_angle_beta		99.3761(0)
_cell_angle_gamma		96.1992(0)

_symmetry_space_group_name_H-M		'P1'
_symmetry_Int_Tables_number		1
_symmetry_cell_setting		Triclinic

loop_
_symmetry_equiv_pos_as_xyz
'+x,+y,+z'

loop_
_atom_site_label
_atom_site_type_symbol
_atom_site_fract_x
_atom_site_fract_y
_atom_site_fract_z
0	C	0.218669	0.982815	0.194279
0	C	0.831786	0.0183857	0.808871
0	C	0.2133	0.0621659	0.246306
0	C	0.837249	0.939055	0.756845
0	C	0.211082	0.141087	0.219201
0	C	0.839449	0.860119	0.783936
0	H	0.21028	0.202857	0.260058
0	H	0.840348	0.798358	0.743086
0	C	0.209938	0.141672	0.1407
0	C	0.840395	0.859498	0.862409
0	C	0.215042	0.0626696	0.0892045
0	C	0.835179	0.938486	0.913907
0	H	0.217811	0.0627543	0.0280504
0	H	0.832251	0.938385	0.975039
0	C	0.219319	0.98359	0.115569
0	C	0.830957	0.0175727	0.887557
0	C	0.20643	0.0641688	0.33027
0	C	0.844071	0.937035	0.672878
0	H	0.152413	0.000417081	0.3376
0	H	0.898187	0.000739403	0.665514
0	H	0.1388	0.113991	0.350668
0	H	0.911515	0.887131	0.652429
0	C	0.355439	0.0860336	0.381197
0	C	0.694997	0.915276	0.622012
0	H	0.420783	0.034454	0.362811
0	H	0.629748	0.966899	0.64044
0	H	0.409618	0.148678	0.371755
0	H	0.640763	0.85266	0.631466
0	C	0.348967	0.0941604	0.467538
0	C	0.701295	0.907124	0.535641
0	H	0.279381	0.143624	0.484892
0	H	0.770747	0.857598	0.518239
0	H	0.298493	0.0304882	0.477822
0	H	0.75183	0.970767	0.525334
0	C	0.496685	0.120165	0.518337
0	C	0.553505	0.881184	0.484947
0	H	0.567868	0.0719886	0.502524
0	H	0.482274	0.929259	0.500925
0	H	0.492726	0.123608	0.579847
0	H	0.557289	0.877924	0.423432
0	H	0.547036	0.184512	0.512464
0	H	0.503277	0.81676	0.490704
0	C	0.197536	0.22558	0.112361
0	C	0.852646	0.775549	0.890713
0	H	0.0857416	0.238856	0.106332
0	H	0.964455	0.762396	0.897042
0	H	0.227687	0.224035	0.0554187
0	H	0.821897	0.776971	0.947502
0	H	0.262316	0.282825	0.153487
0	H	0.788225	0.718309	0.849427
0	C	0.217937	0.89969	0.0568914
0	C	0.832104	0.101464	0.94621
0	H	0.139472	0.845436	0.0633941
0	H	0.910206	0.15586	0.939605
0	H	0.196471	0.909819	0.996185
0	H	0.853936	0.0914024	0.0069196
0	C	0.219212	0.898775	0.221975
0	C	0.831125	0.102412	0.78116
0	C	0.0897348	0.849261	0.224172
0	C	0.96051	0.151899	0.77878
0	H	0.989532	0.873412	0.206473
0	H	0.0607636	0.127759	0.796409
0	C	0.0881526	0.769716	0.249445
0	C	0.961918	0.231396	0.753438
0	H	0.98537	0.732418	0.250539
0	H	0.0646326	0.26866	0.752138
0	C	0.215729	0.7374	0.273038
0	C	0.834248	0.263703	0.73001
0	C	0.34497	0.787898	0.271404
0	C	0.705106	0.213262	0.731884
0	H	0.445902	0.765026	0.289838
0	H	0.604109	0.236154	0.713607
0	C	0.346964	0.867677	0.246265
0	C	0.703285	0.1335	0.757031
0	H	0.448778	0.906212	0.245899
0	H	0.60154	0.0949706	0.75752
0	C	0.21304	0.651876	0.299123
0	C	0.836788	0.34918	0.703853
0	C	0.346795	0.627032	0.338948
0	C	0.703055	0.373697	0.663702
0	H	0.336723	0.613887	0.396536
0	H	0.71335	0.38665	0.606083
0	H	0.439176	0.678749	0.348757
0	H	0.61081	0.321898	0.653901
0	H	0.375519	0.566287	0.305408
0	H	0.673957	0.434455	0.697014
0	C	0.927166	0.486212	0.299396
0	C	0.122687	0.514838	0.703745
0	C	0.890991	0.400389	0.316159
0	C	0.159176	0.600615	0.686979
0	C	0.747654	0.367174	0.312767
0	C	0.302607	0.633636	0.690334
0	H	0.721186	0.300528	0.324402
0	H	0.329308	0.700244	0.678673
0	C	0.640351	0.417116	0.294399
0	C	0.409671	0.58352	0.708678
0	C	0.67445	0.501953	0.276673
0	C	0.375273	0.498726	0.726428
0	H	0.587171	0.538913	0.260062
0	H	0.462374	0.461643	0.743052
0	C	0.812497	0.53492	0.27936
0	C	0.237151	0.465955	0.723755
0	H	0.838906	0.59991	0.265478
0	H	0.210526	0.40098	0.737631
0	N	0.0877645	0.603068	0.283842
0	N	0.961933	0.398173	0.719371
0	N	0.066363	0.522117	0.305443
0	N	0.983403	0.479052	0.697647
0	H	0.147533	0.482463	0.311951
0	H	0.90235	0.51881	0.691304
0	N	0.996558	0.34386	0.33483
0	N	0.0538507	0.657305	0.668364
0	N	0.492364	0.384229	0.291852
0	N	0.557725	0.616168	0.711155
0	N	0.833548	0.369531	0.121038
0	N	0.216395	0.631469	0.881935
0	N	0.850346	0.447825	0.0947222
0	N	0.199565	0.55317	0.908265
0	H	0.765011	0.480152	0.0807983
0	H	0.284896	0.52078	0.922083
0	N	0.893443	0.613066	0.0541494
0	N	0.156591	0.388011	0.948922
0	N	0.413925	0.614669	0.127475
0	N	0.636059	0.38629	0.875781
0	O	0.354941	0.870849	0.0613628
0	O	0.694861	0.129961	0.941818
0	H	0.384438	0.852088	0.110635
0	H	0.665119	0.14871	0.892564
0	O	0.121789	0.370736	0.335545
0	O	0.928623	0.630717	0.667929
0	O	0.957144	0.272938	0.350105
0	O	0.0934499	0.728067	0.652865
0	O	0.462547	0.3124	0.307437
0	O	0.587843	0.687977	0.695592
0	O	0.403271	0.431443	0.272942
0	O	0.646576	0.568746	0.729934
0	C	0.720326	0.991885	0.215846
0	C	0.330021	0.00921397	0.787323
0	C	0.749765	0.99146	0.296122
0	C	0.300541	0.00967064	0.70705
0	C	0.748684	0.910516	0.319681
0	C	0.301486	0.0906126	0.683504
0	H	0.770361	0.909085	0.381223
0	H	0.279739	0.0920591	0.621966
0	C	0.720686	0.830584	0.264822
0	C	0.329389	0.170532	0.738387
0	C	0.693489	0.831521	0.185614
0	C	0.356698	0.169573	0.817583
0	H	0.670016	0.769067	0.142972
0	H	0.380112	0.232018	0.860239
0	C	0.694829	0.911908	0.160828
0	C	0.35547	0.0891708	0.842352
0	C	0.781013	0.0779226	0.354158
0	C	0.269322	0.923228	0.649013
0	H	0.844829	0.127893	0.331143
0	H	0.20537	0.87322	0.671967
0	H	0.679429	0.104299	0.359046
0	H	0.370927	0.896807	0.644194
0	C	0.860158	0.0738507	0.434988
0	C	0.190347	0.927258	0.568135
0	H	0.954595	0.0399824	0.429686
0	H	0.0958321	0.961067	0.573355
0	H	0.792027	0.0334751	0.464216
0	H	0.258508	0.967614	0.538912
0	C	0.906667	0.167032	0.485509
0	C	0.14398	0.834039	0.517638
0	H	0.978617	0.206108	0.457523
0	H	0.0719836	0.794962	0.545614
0	H	0.813398	0.202435	0.488575
0	H	0.237283	0.798668	0.514665
0	C	0.980417	0.16435	0.567265
0	C	0.0703357	0.836592	0.435838
0	H	0.908582	0.131384	0.598347
0	H	0.142104	0.869702	0.404788
0	H	0.0179963	0.231207	0.601911
0	H	0.0331127	0.769713	0.4012
0	H	0.072631	0.128864	0.566661
0	H	0.977872	0.871888	0.436348
0	C	0.723204	0.744465	0.290351
0	C	0.326538	0.25666	0.712905
0	H	0.831145	0.725371	0.293652
0	H	0.218765	0.275973	0.710322
0	H	0.650385	0.690655	0.248933
0	H	0.400104	0.310368	0.75402
0	H	0.696047	0.747271	0.348009
0	H	0.35244	0.253773	0.654967
0	C	0.674644	0.907973	0.0742304
0	C	0.375627	0.093081	0.928941
0	H	0.779425	0.922568	0.0569368
0	H	0.270769	0.0787555	0.946235
0	H	0.620675	0.842397	0.0405792
0	H	0.429993	0.158563	0.962611
0	C	0.717558	0.0769565	0.19
0	C	0.332738	0.924117	0.813128
0	C	0.838499	0.116592	0.168377
0	C	0.211826	0.884573	0.834833
0	H	0.934361	0.0849379	0.171271
0	H	0.116047	0.916304	0.832042
0	C	0.835513	0.195747	0.142619
0	C	0.214701	0.805378	0.860542
0	H	0.930369	0.225337	0.124892
0	H	0.11984	0.775857	0.878311
0	C	0.712456	0.236995	0.138745
0	C	0.337619	0.764013	0.864313
0	C	0.592417	0.197698	0.161891
0	C	0.457635	0.80321	0.841064
0	H	0.495548	0.228353	0.159235
0	H	0.554392	0.772453	0.843623
0	C	0.594922	0.118593	0.187635
0	C	0.455228	0.882335	0.815343
0	H	0.500252	0.0878793	0.204117
0	H	0.549859	0.912955	0.798775
0	C	0.709283	0.320304	0.109653
0	C	0.340693	0.680683	0.89337
0	C	0.571519	0.340694	0.0703722
0	C	0.478407	0.660262	0.932682
0	H	0.556391	0.410281	0.0869438
0	H	0.493394	0.590678	0.916186
0	H	0.478502	0.300694	0.0816284
0	H	0.571463	0.700203	0.921412
0	H	0.563065	0.324084	0.0063954
0	H	0.486809	0.676944	0.996673
0	C	0.987965	0.48972	0.104676
0	C	0.0619691	0.511321	0.898389
0	C	0.0152892	0.575516	0.0859944
0	C	0.0347102	0.425523	0.917082
0	C	0.154661	0.61654	0.0947916
0	C	0.895372	0.384503	0.908372
0	H	0.174886	0.682805	0.0818895
0	H	0.875221	0.318233	0.92128
0	C	0.269406	0.573628	0.119654
0	C	0.780545	0.427379	0.883556
0	C	0.243724	0.488621	0.13778
0	C	0.806168	0.512376	0.865404
0	H	0.334923	0.456577	0.158158
0	H	0.714908	0.544378	0.845054
0	C	0.107351	0.448332	0.130812
0	C	0.942511	0.552682	0.872301
0	H	0.0877044	0.383325	0.145658
0	H	0.962111	0.617678	0.857429
0	O	0.598212	0.974625	0.0506671
0	O	0.451546	0.0262056	0.952474
0	H	0.492578	0.955696	0.0463219
0	H	0.557261	0.0449187	0.956859
0	O	0.858501	0.686782	0.105802
0	O	0.191233	0.314069	0.897419
0	O	0.926067	0.699567	0.0404879
0	O	0.123952	0.301661	0.962913
0	O	0.436588	0.687296	0.110999
0	O	0.613539	0.313575	0.892117
0	O	0.510959	0.574677	0.150436
0	O	0.5389	0.426286	0.852995
