#******************************************
#
# CIF file created by Zeo++
# Zeo++ is an open source package to
# analyze microporous materials
#
#*******************************************

_cell_length_a		15.9774(0)
_cell_length_b		18.4887(0)
_cell_length_c		12.387(0)
_cell_angle_alpha		90(0)
_cell_angle_beta		90(0)
_cell_angle_gamma		119.667(0)

_symmetry_space_group_name_H-M		'P1'
_symmetry_Int_Tables_number		1
_symmetry_cell_setting		Monoclinic

loop_
_symmetry_equiv_pos_as_xyz
'+x,+y,+z'

loop_
_atom_site_label
_atom_site_type_symbol
_atom_site_fract_x
_atom_site_fract_y
_atom_site_fract_z
0	P	0.57977	0.141353	0.168994
0	P	0.787904	0.269895	0.193329
0	P	0.651596	0.334935	0.158405
0	P	0.482702	0.779265	0.841177
0	P	0.274235	0.651263	0.818198
0	P	0.409967	0.585495	0.852366
0	N	0.559102	0.232465	0.142398
0	N	0.689934	0.169631	0.199015
0	N	0.748177	0.339308	0.215654
0	N	0.502902	0.687861	0.868004
0	N	0.372546	0.751342	0.811834
0	N	0.313319	0.581425	0.795871
0	N	0.567392	0.190612	0.0469227
0	N	0.827337	0.287626	0.0558338
0	N	0.681582	0.389931	0.0356137
0	N	0.494961	0.730076	0.963312
0	N	0.234941	0.633824	0.955818
0	N	0.380161	0.530448	0.975171
0	N	0.484871	0.0596734	0.217788
0	N	0.881831	0.281671	0.262405
0	N	0.599346	0.375954	0.244311
0	N	0.577714	0.860645	0.792035
0	N	0.180468	0.639877	0.749263
0	N	0.461691	0.544343	0.765754
0	O	0.560393	0.0964603	0.867981
0	O	0.97667	0.431032	0.891626
0	O	0.526317	0.478453	0.8705
0	O	0.502114	0.824054	0.142539
0	O	0.0856989	0.490329	0.120074
0	O	0.53274	0.440345	0.139585
0	O	0.398865	0.0373642	0.863854
0	O	0.962514	0.303888	0.868501
0	O	0.631269	0.588116	0.779249
0	O	0.663752	0.883889	0.145475
0	O	0.0991589	0.617266	0.142914
0	O	0.429292	0.329956	0.23088
0	O	0.499115	0.243627	0.825263
0	O	0.711943	0.247425	0.864236
0	O	0.767387	0.475216	0.828047
0	O	0.563954	0.678025	0.185706
0	O	0.350568	0.672885	0.146426
0	O	0.294954	0.444075	0.182421
0	O	0.426426	0.251378	0.979765
0	O	0.725836	0.131418	0.924722
0	O	0.896904	0.552732	0.935115
0	O	0.633327	0.667428	0.0301083
0	O	0.336901	0.788807	0.0848375
0	O	0.16472	0.367705	0.0757666
0	O	0.566337	0.985407	0.383028
0	O	0.960851	0.440432	0.382494
0	O	0.499368	0.383744	0.449287
0	O	0.496694	0.935286	0.626884
0	O	0.101009	0.480891	0.630032
0	O	0.561271	0.535647	0.560431
0	O	0.604574	0.107958	0.464224
0	O	0.877923	0.362147	0.52597
0	O	0.599328	0.338617	0.509898
0	O	0.457402	0.812351	0.546158
0	O	0.185931	0.558377	0.487049
0	O	0.463755	0.583534	0.500502
0	O	0.331263	0.929253	0.356299
0	O	0.038968	0.293817	0.410623
0	O	0.677899	0.555822	0.302797
0	O	0.73112	0.990898	0.653144
0	O	0.0225495	0.62653	0.603064
0	O	0.379516	0.364128	0.705449
0	O	0.344793	0.0500716	0.417468
0	O	0.900444	0.177156	0.452014
0	O	0.776407	0.534627	0.413054
0	O	0.717731	0.869938	0.592711
0	O	0.160098	0.743049	0.558647
0	O	0.283554	0.388775	0.595115
0	C	0.478366	0.153138	0.979782
0	C	0.918136	0.333569	0.0398799
0	C	0.770446	0.445183	0.0229883
0	C	0.584025	0.767507	0.0304103
0	C	0.144186	0.587747	0.971798
0	C	0.291393	0.474974	0.987809
0	H	0.409202	0.118142	0.0274653
0	H	0.979918	0.360999	0.0997311
0	H	0.832288	0.466636	0.0817013
0	H	0.653183	0.802264	0.982747
0	H	0.0824529	0.56014	0.911881
0	H	0.229423	0.453475	0.929212
0	C	0.486585	0.0949192	0.898561
0	C	0.954542	0.362666	0.92635
0	C	0.540396	0.53328	0.808211
0	C	0.575962	0.825904	0.111489
0	C	0.107601	0.55862	0.0853067
0	C	0.519763	0.385788	0.201812
0	C	0.472577	0.223052	0.917022
0	C	0.711756	0.188153	0.891559
0	C	0.805107	0.489688	0.915085
0	C	0.589345	0.697484	0.093371
0	C	0.350573	0.731946	0.118411
0	C	0.256874	0.430217	0.0956303
0	C	0.391803	0.978733	0.776522
0	C	0.0129594	0.330718	0.763408
0	C	0.661214	0.663823	0.714977
0	C	0.670683	0.942673	0.232562
0	C	0.0483614	0.590467	0.247821
0	C	0.401026	0.254698	0.295561
0	H	0.461301	0.979215	0.769836
0	H	0.99794	0.378343	0.726971
0	H	0.599236	0.665861	0.679986
0	H	0.601358	0.942544	0.238587
0	H	0.0631295	0.542837	0.284468
0	H	0.463792	0.253685	0.330084
0	H	0.378731	0.00594401	0.702843
0	H	0.976948	0.271681	0.717001
0	H	0.704273	0.655245	0.650271
0	H	0.68306	0.915378	0.306631
0	H	0.0843089	0.649569	0.294193
0	H	0.358011	0.262895	0.360649
0	C	0.308463	0.895588	0.807582
0	C	0.119001	0.363054	0.781254
0	C	0.71979	0.73639	0.789482
0	C	0.754561	0.0256049	0.20183
0	C	0.942368	0.558186	0.2296
0	C	0.342801	0.181607	0.221701
0	H	0.305435	0.845919	0.754552
0	H	0.159578	0.392587	0.706364
0	H	0.726843	0.794302	0.756743
0	H	0.757542	0.0753991	0.254604
0	H	0.901779	0.52966	0.304828
0	H	0.337967	0.124381	0.253997
0	H	0.23877	0.893179	0.802368
0	H	0.134904	0.31462	0.807214
0	H	0.791523	0.744983	0.805321
0	H	0.824005	0.0276309	0.207859
0	H	0.926708	0.606441	0.202133
0	H	0.270167	0.171405	0.207524
0	H	0.315742	0.876752	0.890192
0	H	0.149006	0.413371	0.842355
0	H	0.683302	0.725161	0.868832
0	H	0.748022	0.0445075	0.118999
0	H	0.912237	0.507153	0.169529
0	H	0.378186	0.193392	0.141635
0	C	0.410204	0.319036	0.938211
0	C	0.689358	0.0454373	0.860012
0	C	0.960853	0.595878	0.842581
0	C	0.6484	0.599277	0.0721518
0	C	0.37272	0.87447	0.150142
0	C	0.100799	0.32441	0.168246
0	H	0.459588	0.373635	0.98797
0	H	0.612548	0.0100791	0.882442
0	H	0.000640453	0.561133	0.829199
0	H	0.600148	0.545354	0.0207199
0	H	0.44977	0.909951	0.128749
0	H	0.0613317	0.359417	0.182115
0	H	0.431346	0.331207	0.852011
0	H	0.701437	0.0629429	0.773977
0	H	0.917619	0.590708	0.770595
0	H	0.624879	0.586103	0.157595
0	H	0.359719	0.856515	0.235982
0	H	0.144084	0.329204	0.240029
0	C	0.304583	0.288011	0.958935
0	C	0.754413	0.019349	0.910505
0	C	0.0250943	0.683985	0.881583
0	C	0.754419	0.63006	0.0550756
0	C	0.308316	0.900918	0.0988036
0	C	0.0361135	0.236477	0.128959
0	H	0.283434	0.331602	0.92551
0	H	0.731125	0.954442	0.884368
0	H	0.0913231	0.713853	0.832324
0	H	0.774048	0.5856	0.0888879
0	H	0.331943	0.965973	0.124525
0	H	0.96983	0.206805	0.178035
0	H	0.28859	0.281904	0.0459065
0	H	0.751196	0.018494	0.000188449
0	H	0.0470062	0.684715	0.965944
0	H	0.77296	0.637448	0.968738
0	H	0.311936	0.901516	0.00913887
0	H	0.0144823	0.236024	0.0445496
0	H	0.258653	0.227223	0.921581
0	H	0.830323	0.0579969	0.887099
0	H	0.989937	0.721748	0.877232
0	H	0.799601	0.69014	0.0944783
0	H	0.232263	0.862651	0.121824
0	H	0.0708461	0.198337	0.133234
0	C	0.483305	0.0655351	0.335719
0	C	0.878879	0.284244	0.378223
0	C	0.646638	0.412753	0.347496
0	C	0.579121	0.854677	0.674119
0	C	0.183231	0.636978	0.633416
0	C	0.414589	0.508572	0.66214
0	H	0.498373	0.128663	0.368406
0	H	0.807598	0.241442	0.41923
0	H	0.70434	0.39474	0.367138
0	H	0.56387	0.791498	0.641491
0	H	0.254283	0.679974	0.592179
0	H	0.357945	0.527851	0.642469
0	C	0.553996	0.044369	0.394379
0	C	0.913414	0.372886	0.423071
0	C	0.571714	0.379122	0.439882
0	C	0.508526	0.876044	0.615655
0	C	0.149134	0.548258	0.589174
0	C	0.489823	0.541648	0.570057
0	C	0.379359	0.00368198	0.368337
0	C	0.952088	0.257711	0.413132
0	C	0.69736	0.508506	0.348514
0	C	0.683068	0.916427	0.641415
0	C	0.109397	0.662865	0.59894
0	C	0.361931	0.412695	0.660057
0	C	0.678194	0.105243	0.533959
0	C	0.896662	0.435978	0.590179
0	C	0.538155	0.297753	0.605449
0	C	0.383942	0.815464	0.476581
0	C	0.167471	0.483975	0.424172
0	C	0.525253	0.624145	0.40505
0	H	0.641171	0.0472305	0.581816
0	H	0.943691	0.436351	0.656302
0	H	0.590683	0.322473	0.6728
0	H	0.421263	0.873377	0.428546
0	H	0.115675	0.479416	0.361387
0	H	0.473092	0.59917	0.337396
0	H	0.733283	0.104441	0.48056
0	H	0.936251	0.492631	0.54012
0	H	0.484159	0.318188	0.6153
0	H	0.32921	0.816716	0.530039
0	H	0.133576	0.428467	0.47699
0	H	0.5795	0.603951	0.395939
0	C	0.715547	0.183521	0.600885
0	C	0.799311	0.421118	0.626267
0	C	0.495214	0.205207	0.587807
0	C	0.345799	0.737069	0.409791
0	C	0.264376	0.502492	0.381325
0	C	0.56755	0.716628	0.422457
0	H	0.770892	0.189082	0.657696
0	H	0.799577	0.480579	0.63888
0	H	0.464377	0.172206	0.664124
0	H	0.289776	0.7314	0.35402
0	H	0.267166	0.444463	0.367537
0	H	0.597959	0.749658	0.34603
0	H	0.657424	0.186266	0.644837
0	H	0.775377	0.386664	0.702492
0	H	0.550296	0.189305	0.562196
0	H	0.403311	0.734202	0.364698
0	H	0.28285	0.536006	0.30428
0	H	0.512113	0.732031	0.448267
0	H	0.749976	0.240415	0.550026
0	H	0.743423	0.386047	0.565487
0	H	0.438546	0.180611	0.526248
0	H	0.31202	0.680278	0.460879
0	H	0.322395	0.539981	0.438958
0	H	0.624384	0.7416	0.483894
0	C	0.247269	0.00852784	0.462847
0	C	0.954605	0.138389	0.492358
0	C	0.833672	0.623859	0.439667
0	C	0.815036	0.911436	0.546773
0	C	0.104841	0.781006	0.518894
0	C	0.224467	0.300352	0.565561
0	H	0.20958	0.0338388	0.414453
0	H	0.915742	0.0755559	0.456278
0	H	0.904227	0.642031	0.402429
0	H	0.852179	0.88473	0.593399
0	H	0.141953	0.843333	0.556461
0	H	0.152267	0.285229	0.595068
0	H	0.213962	0.940498	0.451022
0	H	0.0295344	0.172845	0.461544
0	H	0.800381	0.657645	0.402147
0	H	0.849186	0.979339	0.560546
0	H	0.0293923	0.744929	0.548522
0	H	0.251277	0.263531	0.608361
0	C	0.25751	0.0333047	0.580539
0	C	0.949373	0.137453	0.614524
0	C	0.837601	0.628727	0.561348
0	C	0.804387	0.888647	0.428316
0	C	0.111623	0.783634	0.396837
0	C	0.229341	0.296575	0.444119
0	H	0.187837	0.00388375	0.622053
0	H	0.994531	0.115006	0.651209
0	H	0.783449	0.642211	0.596502
0	H	0.873913	0.918814	0.386472
0	H	0.0667039	0.806327	0.360169
0	H	0.285132	0.282486	0.415659
0	H	0.289934	0.101112	0.590294
0	H	0.874704	0.0976758	0.64282
0	H	0.909921	0.674245	0.590589
0	H	0.772002	0.821038	0.416461
0	H	0.186625	0.823954	0.369817
0	H	0.159261	0.252057	0.40918
0	H	0.305336	0.0157763	0.62421
0	H	0.972828	0.200398	0.647008
0	H	0.822558	0.567801	0.596493
0	H	0.756396	0.906823	0.386359
0	H	0.0888809	0.721154	0.363098
0	H	0.248097	0.358087	0.407924
