#******************************************
#
# CIF file created by Zeo++
# Zeo++ is an open source package to
# analyze microporous materials
#
#*******************************************

_cell_length_a		19.5694(0)
_cell_length_b		19.625(0)
_cell_length_c		19.1738(0)
_cell_angle_alpha		90(0)
_cell_angle_beta		90(0)
_cell_angle_gamma		90(0)

_symmetry_space_group_name_H-M		'P1'
_symmetry_Int_Tables_number		1
_symmetry_cell_setting		Monoclinic

loop_
_symmetry_equiv_pos_as_xyz
'+x,+y,+z'

loop_
_atom_site_label
_atom_site_type_symbol
_atom_site_fract_x
_atom_site_fract_y
_atom_site_fract_z
0	O	0.857139	0.640669	0.842165
0	O	0.14251	0.356571	0.843322
0	O	0.143226	0.641129	0.178188
0	O	0.856681	0.355967	0.17794
0	O	0.834579	0.857005	0.651604
0	O	0.834609	0.140013	0.368672
0	O	0.165253	0.140207	0.652025
0	O	0.165467	0.856982	0.368725
0	O	0.644759	0.829142	0.869237
0	O	0.355245	0.829389	0.151199
0	O	0.644637	0.167701	0.151241
0	O	0.355184	0.167923	0.869298
0	O	0.358247	0.140678	0.340903
0	O	0.641584	0.856428	0.340904
0	O	0.641673	0.140646	0.679628
0	O	0.358233	0.856408	0.679807
0	O	0.333357	0.358193	0.147853
0	O	0.3335	0.638827	0.872775
0	O	0.666524	0.638902	0.147752
0	O	0.666573	0.358093	0.872624
0	O	0.143601	0.330682	0.369988
0	O	0.85623	0.330772	0.650545
0	O	0.143727	0.666384	0.650659
0	O	0.856197	0.666487	0.369781
0	N	0.811169	0.621101	0.949889
0	N	0.189083	0.37572	0.95083
0	N	0.188892	0.621227	0.0703994
0	N	0.810893	0.375798	0.0702051
0	N	0.940549	0.811464	0.633203
0	N	0.94055	0.185606	0.387091
0	N	0.0592763	0.185735	0.633631
0	N	0.0594769	0.811529	0.387193
0	N	0.622892	0.935725	0.826655
0	N	0.377196	0.935905	0.193918
0	N	0.622762	0.0611529	0.193909
0	N	0.377151	0.0613578	0.826719
0	N	0.312609	0.12186	0.448926
0	N	0.687272	0.875253	0.448897
0	N	0.687296	0.121874	0.571599
0	N	0.312657	0.875269	0.571778
0	N	0.43902	0.311259	0.131221
0	N	0.439153	0.685762	0.889452
0	N	0.560846	0.685802	0.131128
0	N	0.560879	0.311254	0.88935
0	N	0.122239	0.437572	0.327913
0	N	0.87755	0.437629	0.692704
0	N	0.122393	0.55949	0.692729
0	N	0.877632	0.559605	0.327727
0	C	0.86704	0.784721	0.894851
0	C	0.133062	0.212303	0.895507
0	C	0.133138	0.784961	0.1255
0	C	0.86683	0.212154	0.125342
0	C	0.882985	0.865273	0.79957
0	C	0.882915	0.131747	0.220725
0	C	0.117025	0.131984	0.800039
0	C	0.117084	0.865421	0.220832
0	C	0.788	0.879571	0.880303
0	C	0.212095	0.879856	0.140147
0	C	0.787849	0.117299	0.140118
0	C	0.21207	0.117465	0.880647
0	C	0.367087	0.285407	0.392555
0	C	0.632826	0.711713	0.392514
0	C	0.632842	0.285409	0.628026
0	C	0.367171	0.711723	0.628136
0	C	0.381688	0.365841	0.296931
0	C	0.381808	0.631251	0.723726
0	C	0.618241	0.631311	0.296863
0	C	0.618201	0.365859	0.723624
0	C	0.287607	0.379977	0.378817
0	C	0.712265	0.380029	0.641721
0	C	0.287717	0.617133	0.64186
0	C	0.712302	0.617137	0.378757
0	C	0.808862	0.820905	0.917137
0	C	0.191234	0.176027	0.917661
0	C	0.191295	0.821207	0.103261
0	C	0.808654	0.175909	0.103165
0	C	0.90421	0.806604	0.8359
0	C	0.904073	0.190375	0.184284
0	C	0.0958697	0.190598	0.836507
0	C	0.0959192	0.806768	0.184447
0	C	0.824501	0.901639	0.821187
0	C	0.175535	0.901863	0.19925
0	C	0.824435	0.0953209	0.199218
0	C	0.1755	0.095531	0.821526
0	C	0.308896	0.32128	0.415352
0	C	0.691	0.675812	0.415318
0	C	0.691008	0.321312	0.605208
0	C	0.308989	0.675839	0.605331
0	C	0.403569	0.307344	0.333169
0	C	0.403685	0.689749	0.687484
0	C	0.596354	0.689795	0.33312
0	C	0.59634	0.307351	0.687396
0	C	0.323234	0.401947	0.319097
0	C	0.676613	0.402008	0.701425
0	C	0.323356	0.595145	0.701566
0	C	0.676673	0.595175	0.319038
0	C	0.768421	0.797397	0.979674
0	C	0.231679	0.199339	0.980279
0	C	0.231741	0.797767	0.0406993
0	C	0.768172	0.199296	0.0406073
0	C	0.966047	0.766806	0.81236
0	C	0.96592	0.230233	0.20771
0	C	0.0340641	0.230491	0.813049
0	C	0.0340964	0.766906	0.20792
0	C	0.801314	0.963304	0.780518
0	C	0.19863	0.963556	0.239935
0	C	0.801332	0.0336638	0.239946
0	C	0.198595	0.0339131	0.780734
0	C	0.268787	0.297476	0.478031
0	C	0.731062	0.699572	0.478051
0	C	0.731091	0.297518	0.542506
0	C	0.268882	0.699635	0.542643
0	C	0.465324	0.267727	0.309054
0	C	0.465495	0.729311	0.711554
0	C	0.534571	0.729379	0.30902
0	C	0.534572	0.267743	0.711494
0	C	0.299188	0.463169	0.27823
0	C	0.700597	0.4633	0.742228
0	C	0.299323	0.533896	0.742399
0	C	0.700684	0.533924	0.278189
0	H	0.770813	0.741201	0.985588
0	H	0.229332	0.255521	0.986338
0	H	0.229471	0.741562	0.0348217
0	H	0.77051	0.255485	0.0346162
0	H	0.972584	0.769387	0.754932
0	H	0.972514	0.227718	0.265135
0	H	0.0276162	0.228122	0.755599
0	H	0.0275099	0.769462	0.265344
0	H	0.744915	0.969009	0.782367
0	H	0.255018	0.969355	0.238075
0	H	0.744927	0.0279755	0.238226
0	H	0.254989	0.0281328	0.782544
0	H	0.271367	0.241275	0.483813
0	H	0.728451	0.755765	0.483896
0	H	0.728581	0.241308	0.536776
0	H	0.271492	0.75583	0.536827
0	H	0.470645	0.269475	0.251453
0	H	0.470878	0.727522	0.769146
0	H	0.529301	0.727704	0.251411
0	H	0.529218	0.269513	0.769088
0	H	0.242836	0.468834	0.281168
0	H	0.756942	0.469039	0.739267
0	H	0.24296	0.528281	0.739541
0	H	0.757029	0.528212	0.281142
0	H	0.712931	0.807413	0.971215
0	H	0.287158	0.18929	0.971814
0	H	0.287213	0.807911	0.0491012
0	H	0.712695	0.189241	0.0491022
0	H	0.95811	0.711373	0.822241
0	H	0.957949	0.285648	0.19776
0	H	0.0419858	0.285889	0.823163
0	H	0.042096	0.711486	0.198022
0	H	0.811932	0.955752	0.723901
0	H	0.188022	0.955978	0.296551
0	H	0.812078	0.0412085	0.296541
0	H	0.187961	0.0415752	0.724134
0	H	0.213197	0.307252	0.469795
0	H	0.786659	0.689819	0.469841
0	H	0.786676	0.307381	0.550675
0	H	0.213292	0.68989	0.550902
0	H	0.458128	0.212353	0.319919
0	H	0.458327	0.784696	0.700717
0	H	0.541693	0.784746	0.319977
0	H	0.541777	0.212365	0.700651
0	H	0.308719	0.454969	0.221474
0	H	0.691088	0.455138	0.798992
0	H	0.308943	0.542017	0.799152
0	H	0.691173	0.542121	0.22143
0	C	0.889572	0.721703	0.933787
0	C	0.110535	0.275177	0.934701
0	C	0.110665	0.721982	0.0864743
0	C	0.889267	0.275125	0.086272
0	C	0.92249	0.889007	0.736411
0	C	0.922526	0.108085	0.283845
0	C	0.0773858	0.108329	0.736937
0	C	0.077526	0.889081	0.283986
0	C	0.725534	0.918379	0.903967
0	C	0.27455	0.918719	0.11654
0	C	0.725393	0.0784207	0.11656
0	C	0.274557	0.0785979	0.90415
0	C	0.390378	0.222752	0.431624
0	C	0.609511	0.774339	0.431624
0	C	0.609548	0.222768	0.58894
0	C	0.390446	0.774387	0.589071
0	C	0.42068	0.389757	0.233506
0	C	0.420836	0.607301	0.787118
0	C	0.579223	0.607381	0.233466
0	C	0.579207	0.389762	0.787051
0	C	0.225773	0.419147	0.40357
0	C	0.774075	0.419229	0.616947
0	C	0.225921	0.577937	0.617072
0	C	0.774146	0.577971	0.403491
0	H	0.945269	0.711615	0.926085
0	H	0.0548149	0.28522	0.927122
0	H	0.0549551	0.71189	0.0940801
0	H	0.944965	0.285283	0.0939024
0	H	0.914675	0.944603	0.72669
0	H	0.914823	0.0524771	0.29356
0	H	0.0850523	0.0527089	0.727244
0	H	0.0852908	0.944674	0.293756
0	H	0.715794	0.910935	0.960907
0	H	0.284278	0.911355	0.0595878
0	H	0.715634	0.0857592	0.0596073
0	H	0.284394	0.0859582	0.961088
0	H	0.446076	0.213097	0.423448
0	H	0.553807	0.783957	0.423472
0	H	0.553845	0.213128	0.5971
0	H	0.446141	0.784069	0.597258
0	H	0.412331	0.445247	0.223699
0	H	0.412503	0.551803	0.796872
0	H	0.587539	0.551883	0.223695
0	H	0.587562	0.445247	0.796875
0	H	0.216978	0.411653	0.460631
0	H	0.782868	0.411725	0.559888
0	H	0.217152	0.585419	0.560007
0	H	0.782983	0.585486	0.460541
0	H	0.883937	0.729287	0.991243
0	H	0.11627	0.267423	0.992122
0	H	0.116372	0.729599	0.029031
0	H	0.883586	0.26747	0.0288334
0	H	0.978608	0.883713	0.745485
0	H	0.978627	0.113476	0.274717
0	H	0.0212911	0.113741	0.746098
0	H	0.0214167	0.883752	0.274884
0	H	0.73376	0.974429	0.898265
0	H	0.266323	0.974755	0.122328
0	H	0.733644	0.0223852	0.122356
0	H	0.266314	0.022562	0.898379
0	H	0.38522	0.230695	0.489095
0	H	0.614695	0.766383	0.489086
0	H	0.614708	0.230726	0.531471
0	H	0.385307	0.766453	0.531598
0	H	0.476903	0.385008	0.242447
0	H	0.477049	0.612069	0.778164
0	H	0.523004	0.612152	0.242417
0	H	0.52299	0.385023	0.778114
0	H	0.234403	0.475161	0.397868
0	H	0.765429	0.47524	0.622639
0	H	0.234567	0.521923	0.622777
0	H	0.765527	0.521957	0.397814
0	C	0.850143	0.660283	0.912103
0	C	0.149884	0.336692	0.91313
0	C	0.150063	0.660547	0.108179
0	C	0.849795	0.336522	0.107951
0	C	0.902771	0.850125	0.672762
0	C	0.902798	0.146937	0.347517
0	C	0.0970795	0.147117	0.673225
0	C	0.0972523	0.850162	0.347618
0	C	0.663391	0.897945	0.86422
0	C	0.336669	0.898198	0.15627
0	C	0.663259	0.0988995	0.156294
0	C	0.336631	0.0991	0.864331
0	C	0.35126	0.160902	0.410662
0	C	0.648603	0.836209	0.410658
0	C	0.648652	0.160896	0.609876
0	C	0.351293	0.836221	0.610032
0	C	0.401178	0.350638	0.16995
0	C	0.401326	0.646381	0.850696
0	C	0.598705	0.646449	0.169867
0	C	0.598726	0.350618	0.850586
0	C	0.162835	0.399288	0.364864
0	C	0.837003	0.399379	0.655685
0	C	0.162966	0.597776	0.655761
0	C	0.837034	0.597859	0.364716
0	C	0.813607	0.580264	0.831891
0	C	0.18605	0.416964	0.832987
0	C	0.186508	0.580542	0.18846
0	C	0.813277	0.416453	0.188275
0	C	0.825595	0.813887	0.589404
0	C	0.825593	0.183118	0.430889
0	C	0.174185	0.183183	0.589706
0	C	0.174466	0.813826	0.430901
0	C	0.582883	0.820004	0.826537
0	C	0.417071	0.820131	0.193948
0	C	0.582753	0.176878	0.193924
0	C	0.416975	0.177144	0.826491
0	C	0.315488	0.0795953	0.331476
0	C	0.684355	0.917502	0.33144
0	C	0.684394	0.0795232	0.689011
0	C	0.315422	0.917457	0.689254
0	C	0.324717	0.314767	0.0858045
0	C	0.324832	0.682234	0.934832
0	C	0.675115	0.682238	0.085626
0	C	0.675234	0.314636	0.934642
0	C	0.0807699	0.322405	0.328538
0	C	0.918993	0.32245	0.692105
0	C	0.0808867	0.674642	0.692111
0	C	0.918943	0.674831	0.328207
0	H	0.847782	0.539726	0.812709
0	H	0.151807	0.457576	0.814102
0	H	0.152174	0.54014	0.207639
0	H	0.847532	0.4569	0.207502
0	H	0.807823	0.848216	0.547635
0	H	0.807853	0.148754	0.472642
0	H	0.191864	0.148747	0.547993
0	H	0.19231	0.848131	0.472663
0	H	0.543266	0.800484	0.862244
0	H	0.456693	0.800619	0.158247
0	H	0.543133	0.196349	0.158193
0	H	0.456613	0.196756	0.862124
0	H	0.35024	0.0391387	0.313116
0	H	0.649594	0.957963	0.313107
0	H	0.649612	0.0390675	0.707312
0	H	0.350135	0.957922	0.707685
0	H	0.308034	0.349094	0.0434971
0	H	0.308197	0.647875	0.977129
0	H	0.691708	0.647841	0.0433458
0	H	0.691968	0.348942	0.976947
0	H	0.0413805	0.304061	0.365198
0	H	0.958433	0.304121	0.655494
0	H	0.0414863	0.692934	0.655437
0	H	0.958366	0.693256	0.364791
0	H	0.776041	0.594946	0.791961
0	H	0.223392	0.402359	0.792808
0	H	0.224133	0.595078	0.228395
0	H	0.775668	0.401809	0.228182
0	H	0.785969	0.776617	0.603469
0	H	0.785925	0.220348	0.416834
0	H	0.213869	0.220448	0.60363
0	H	0.214041	0.776519	0.416782
0	H	0.596471	0.781811	0.786924
0	H	0.403408	0.781898	0.233491
0	H	0.596336	0.21512	0.233492
0	H	0.403257	0.215282	0.786869
0	H	0.277945	0.0931905	0.291171
0	H	0.721858	0.903893	0.2911
0	H	0.721924	0.0930641	0.729353
0	H	0.27785	0.903798	0.72951
0	H	0.284326	0.278212	0.0995205
0	H	0.284402	0.718753	0.921134
0	H	0.715552	0.718784	0.0992402
0	H	0.715582	0.278052	0.920877
0	H	0.0928374	0.283532	0.289169
0	H	0.906848	0.283543	0.731416
0	H	0.092939	0.713553	0.731453
0	H	0.906745	0.713652	0.288825
0	C	0.782628	0.565736	0.905291
0	C	0.217411	0.431236	0.906265
0	C	0.217422	0.565889	0.115056
0	C	0.782345	0.431111	0.114882
0	C	0.897671	0.782702	0.576028
0	C	0.897644	0.214356	0.44426
0	C	0.102115	0.214396	0.576376
0	C	0.102374	0.782709	0.444332
0	C	0.567412	0.892367	0.797022
0	C	0.43258	0.892447	0.223571
0	C	0.567296	0.104543	0.22352
0	C	0.432524	0.104787	0.796998
0	C	0.284412	0.0658055	0.405005
0	C	0.715491	0.931284	0.404944
0	C	0.715496	0.0657884	0.615487
0	C	0.284399	0.931292	0.615716
0	C	0.396542	0.282493	0.0737423
0	C	0.396633	0.714567	0.946882
0	C	0.603299	0.714549	0.0736126
0	C	0.603396	0.282404	0.946753
0	C	0.0661888	0.394792	0.298563
0	C	0.933537	0.394813	0.722154
0	C	0.0663618	0.602265	0.722132
0	C	0.933581	0.602444	0.29826
0	H	0.801631	0.515606	0.925882
0	H	0.198524	0.481293	0.927145
0	H	0.198389	0.515749	0.0945423
0	H	0.801365	0.481261	0.0943628
0	H	0.918772	0.801211	0.524943
0	H	0.91876	0.195882	0.495349
0	H	0.0809463	0.195856	0.525335
0	H	0.0813173	0.801222	0.495432
0	H	0.517165	0.911692	0.817208
0	H	0.482871	0.911748	0.203471
0	H	0.517042	0.0851933	0.203382
0	H	0.482815	0.0855371	0.817141
0	H	0.303743	0.0160479	0.426263
0	H	0.69622	0.981056	0.426216
0	H	0.696196	0.016043	0.594181
0	H	0.303722	0.981066	0.594491
0	H	0.418474	0.300334	0.0227376
0	H	0.418574	0.696806	0.997911
0	H	0.581312	0.696734	0.0226308
0	H	0.581508	0.300212	0.997787
0	H	0.0161439	0.414836	0.318603
0	H	0.983626	0.414855	0.702231
0	H	0.0162977	0.582201	0.702172
0	H	0.983675	0.582468	0.318242
0	C	0.705458	0.567763	0.906816
0	C	0.294585	0.429187	0.907361
0	C	0.294593	0.567894	0.113536
0	C	0.705177	0.429101	0.11339
0	C	0.898839	0.705746	0.578678
0	C	0.89875	0.291313	0.441563
0	C	0.101019	0.291358	0.578962
0	C	0.101161	0.705754	0.441663
0	C	0.56904	0.895334	0.718317
0	C	0.430836	0.895341	0.302275
0	C	0.568977	0.101651	0.302227
0	C	0.430813	0.101784	0.718297
0	C	0.207204	0.0672612	0.406406
0	C	0.792698	0.929738	0.406296
0	C	0.792704	0.067293	0.614118
0	C	0.207192	0.929803	0.614281
0	C	0.397129	0.205537	0.0771744
0	C	0.397158	0.791519	0.943324
0	C	0.602774	0.791505	0.0770835
0	C	0.602787	0.205452	0.943237
0	C	0.0680483	0.397369	0.219805
0	C	0.931503	0.397357	0.800908
0	C	0.0683482	0.599712	0.80089
0	C	0.931615	0.599829	0.219507
0	C	0.669311	0.508314	0.923591
0	C	0.330846	0.488654	0.923832
0	C	0.330744	0.508426	0.0968576
0	C	0.669015	0.488597	0.0968274
0	C	0.914884	0.669429	0.517898
0	C	0.914706	0.3277	0.50233
0	C	0.0849992	0.327661	0.518167
0	C	0.0852249	0.66942	0.502464
0	C	0.508788	0.910259	0.681885
0	C	0.491053	0.910172	0.338819
0	C	0.508749	0.0867646	0.33872
0	C	0.491056	0.0869555	0.681803
0	C	0.171454	0.00732888	0.422336
0	C	0.828546	0.98964	0.422129
0	C	0.828507	0.00739112	0.598195
0	C	0.171405	0.989754	0.598507
0	C	0.414546	0.168599	0.0171658
0	C	0.414451	0.828581	0.00329669
0	C	0.585417	0.828495	0.0170903
0	C	0.585521	0.168447	0.00324925
0	C	0.00793123	0.411931	0.182972
0	C	0.991547	0.411898	0.837879
0	C	0.00829287	0.585123	0.837812
0	C	0.991722	0.585377	0.182607
0	H	0.696398	0.460697	0.933984
0	H	0.303824	0.536307	0.93423
0	H	0.303662	0.460802	0.0864966
0	H	0.696101	0.536236	0.086531
0	H	0.924844	0.696414	0.469121
0	H	0.924638	0.300755	0.551138
0	H	0.0750125	0.300663	0.469406
0	H	0.0753511	0.696405	0.551264
0	H	0.46072	0.91775	0.709797
0	H	0.539166	0.917626	0.310979
0	H	0.460663	0.0792617	0.310849
0	H	0.53916	0.0795469	0.709676
0	H	0.198875	0.959741	0.431677
0	H	0.801186	0.0372723	0.431432
0	H	0.801126	0.959786	0.588836
0	H	0.198808	0.0373756	0.589279
0	H	0.42535	0.195105	0.968363
0	H	0.425207	0.802159	0.0521577
0	H	0.574622	0.802025	0.968267
0	H	0.574817	0.194908	0.0521007
0	H	0.959767	0.419395	0.210614
0	H	0.0397681	0.41936	0.810337
0	H	0.960092	0.577636	0.810244
0	H	0.0399281	0.578006	0.210203
0	C	0.598035	0.509679	0.927387
0	C	0.402132	0.48724	0.927335
0	C	0.402025	0.509794	0.0931176
0	C	0.597738	0.487242	0.0931164
0	C	0.918466	0.598354	0.519436
0	C	0.91823	0.398772	0.500725
0	C	0.0814833	0.398741	0.519681
0	C	0.0816371	0.598349	0.500916
0	C	0.510072	0.91584	0.609282
0	C	0.489657	0.915709	0.411419
0	C	0.510094	0.0812376	0.411327
0	C	0.489712	0.0813652	0.609205
0	C	0.100177	0.0082318	0.426559
0	C	0.899821	0.988636	0.426307
0	C	0.899785	0.00835687	0.594003
0	C	0.100128	0.988822	0.594289
0	C	0.418356	0.0975577	0.0196051
0	C	0.418204	0.899616	0.000724182
0	C	0.581648	0.899536	0.0195882
0	C	0.581731	0.0974098	0.000744508
0	C	0.00958458	0.417276	0.110323
0	C	0.989745	0.417214	0.910524
0	C	0.0100594	0.579784	0.910457
0	C	0.99	0.580016	0.109967
0	H	0.569931	0.463332	0.941015
0	H	0.430337	0.533592	0.940758
0	H	0.430139	0.463427	0.0795622
0	H	0.569606	0.533623	0.0796499
0	H	0.931507	0.570136	0.472065
0	H	0.9312	0.427057	0.548077
0	H	0.0684616	0.426951	0.472303
0	H	0.0686848	0.570107	0.548299
0	H	0.463109	0.928142	0.58084
0	H	0.536588	0.92795	0.439952
0	H	0.463149	0.0689576	0.439813
0	H	0.536665	0.069135	0.58071
0	H	0.0724333	0.961587	0.439621
0	H	0.927653	0.0352528	0.439287
0	H	0.927572	0.961734	0.580949
0	H	0.0723474	0.0354792	0.581355
0	H	0.43234	0.0688924	0.972862
0	H	0.432086	0.928395	0.0474331
0	H	0.567709	0.928246	0.972856
0	H	0.567874	0.0686786	0.0474878
0	H	0.962785	0.429259	0.0816068
0	H	0.0364935	0.429168	0.939348
0	H	0.963302	0.567776	0.939243
0	H	0.0367848	0.56811	0.0811891
0	C	0.562621	0.570198	0.914654
0	C	0.437439	0.426658	0.9146
0	C	0.437428	0.570326	0.105819
0	C	0.562348	0.426684	0.105712
0	C	0.906279	0.563279	0.581573
0	C	0.906081	0.433769	0.438531
0	C	0.0937168	0.433825	0.581805
0	C	0.0936911	0.5633	0.438738
0	C	0.571194	0.906509	0.5729
0	C	0.428459	0.906437	0.447688
0	C	0.57125	0.090585	0.44765
0	C	0.428534	0.0905741	0.57289
0	C	0.0643778	0.068779	0.415036
0	C	0.935513	0.928013	0.414854
0	C	0.935529	0.0689356	0.605552
0	C	0.0643777	0.928219	0.605636
0	C	0.405193	0.0631674	0.0819459
0	C	0.405126	0.933874	0.938282
0	C	0.594789	0.933871	0.0819692
0	C	0.594738	0.0630952	0.938326
0	C	0.0709964	0.408261	0.0743402
0	C	0.928252	0.408207	0.946364
0	C	0.0715206	0.588841	0.946348
0	C	0.928527	0.588898	0.0740586
0	H	0.506898	0.571453	0.918957
0	H	0.49317	0.425359	0.918713
0	H	0.493153	0.571581	0.101564
0	H	0.506621	0.425439	0.10147
0	H	0.910312	0.507722	0.583039
0	H	0.910083	0.489321	0.437015
0	H	0.08973	0.489385	0.583251
0	H	0.0896484	0.507749	0.437268
0	H	0.572377	0.912215	0.516101
0	H	0.427196	0.912119	0.504484
0	H	0.572478	0.0849143	0.504449
0	H	0.427312	0.0848621	0.516098
0	H	0.00872436	0.069754	0.419665
0	H	0.991161	0.926959	0.419468
0	H	0.991184	0.0699572	0.600946
0	H	0.00872898	0.927218	0.60099
0	H	0.409675	0.00768768	0.084225
0	H	0.409576	0.989347	0.935902
0	H	0.590327	0.989345	0.0842962
0	H	0.590273	0.00762029	0.935998
0	H	0.072466	0.413866	0.0175953
0	H	0.926663	0.413802	0.00310433
0	H	0.0730781	0.583246	0.00309292
0	H	0.927004	0.583279	0.0173147
0	C	0.598484	0.629393	0.897151
0	C	0.401468	0.367462	0.897354
0	C	0.401553	0.62954	0.123232
0	C	0.598222	0.367437	0.123003
0	C	0.889532	0.59929	0.642131
0	C	0.889424	0.397697	0.377994
0	C	0.110448	0.397823	0.642374
0	C	0.110312	0.599319	0.378152
0	C	0.631097	0.890362	0.609011
0	C	0.368597	0.89039	0.41147
0	C	0.631124	0.1067	0.411475
0	C	0.368634	0.106606	0.609057
0	C	0.0998337	0.128437	0.398312
0	C	0.899967	0.868388	0.398231
0	C	0.900017	0.128561	0.62227
0	C	0.0998631	0.868532	0.622191
0	C	0.387078	0.099763	0.141719
0	C	0.387145	0.897161	0.878554
0	C	0.612852	0.89722	0.141721
0	C	0.61268	0.0997524	0.878542
0	C	0.130815	0.392643	0.110869
0	C	0.868508	0.392619	0.909704
0	C	0.131274	0.604489	0.90973
0	C	0.868715	0.604394	0.110644
0	H	0.570383	0.67646	0.886921
0	H	0.42949	0.320352	0.887105
0	H	0.429649	0.676617	0.133449
0	H	0.570134	0.320341	0.133144
0	H	0.879714	0.57138	0.690399
0	H	0.879634	0.42555	0.32969
0	H	0.120307	0.425743	0.690627
0	H	0.120027	0.571424	0.329857
0	H	0.678563	0.882308	0.580103
0	H	0.321073	0.882383	0.44029
0	H	0.678617	0.11477	0.440337
0	H	0.321122	0.114564	0.5802
0	H	0.0714702	0.175522	0.388947
0	H	0.928253	0.821249	0.38892
0	H	0.928338	0.175669	0.631658
0	H	0.0715291	0.821404	0.631415
0	H	0.376655	0.0723837	0.190151
0	H	0.37679	0.924434	0.830047
0	H	0.62326	0.924553	0.190185
0	H	0.622983	0.0724305	0.830051
0	H	0.17857	0.384909	0.0823708
0	H	0.820696	0.384893	0.938102
0	H	0.179057	0.612257	0.938166
0	H	0.820922	0.612023	0.0821871
0	C	0.669747	0.628318	0.893174
0	C	0.330189	0.368581	0.893668
0	C	0.330291	0.62847	0.127144
0	C	0.669488	0.368504	0.126898
0	C	0.88568	0.670362	0.640833
0	C	0.885627	0.32662	0.379356
0	C	0.114231	0.326749	0.641104
0	C	0.114183	0.670393	0.379465
0	C	0.630138	0.884677	0.681599
0	C	0.369662	0.884745	0.338875
0	C	0.63011	0.112327	0.338882
0	C	0.369655	0.112307	0.681648
0	C	0.171079	0.1278	0.393882
0	C	0.828721	0.869125	0.393836
0	C	0.828773	0.127863	0.626669
0	C	0.171107	0.869206	0.626633
0	C	0.382803	0.170794	0.139447
0	C	0.382911	0.826126	0.880957
0	C	0.61709	0.826189	0.139394
0	C	0.616952	0.170785	0.880884
0	C	0.129426	0.387022	0.183452
0	C	0.870041	0.387022	0.837118
0	C	0.12978	0.610095	0.837145
0	C	0.870171	0.610031	0.183229
0	H	0.697591	0.67478	0.880171
0	H	0.302264	0.322117	0.880863
0	H	0.302427	0.67494	0.14008
0	H	0.697345	0.322005	0.139745
0	H	0.873105	0.698255	0.688354
0	H	0.873124	0.298675	0.331849
0	H	0.126791	0.298853	0.688624
0	H	0.126666	0.698294	0.331923
0	H	0.677072	0.872549	0.709688
0	H	0.322757	0.872699	0.310707
0	H	0.677019	0.124428	0.310743
0	H	0.322721	0.124347	0.709776
0	H	0.198596	0.174574	0.381345
0	H	0.801128	0.822374	0.381378
0	H	0.801208	0.17461	0.639199
0	H	0.198649	0.822413	0.639045
0	H	0.369087	0.199189	0.186319
0	H	0.369291	0.797641	0.834117
0	H	0.630767	0.797745	0.186246
0	H	0.630542	0.199226	0.834004
0	H	0.176237	0.375124	0.211866
0	H	0.823286	0.375153	0.808603
0	H	0.176539	0.62201	0.808652
0	H	0.823363	0.621827	0.211692
0	C	0.792751	0.832086	0.0465092
0	C	0.207283	0.164488	0.0469928
0	C	0.207276	0.832373	0.973878
0	C	0.792502	0.164546	0.973813
0	C	0.0309198	0.791422	0.848792
0	C	0.0307536	0.205594	0.171234
0	C	0.969143	0.205746	0.849287
0	C	0.969229	0.791472	0.171451
0	C	0.835734	0.0284088	0.806469
0	C	0.164089	0.0285948	0.213987
0	C	0.835681	0.96856	0.213913
0	C	0.164121	0.968801	0.806577
0	C	0.293232	0.332052	0.544971
0	C	0.706579	0.664905	0.544921
0	C	0.706532	0.332008	0.475569
0	C	0.29329	0.665017	0.475719
0	C	0.530766	0.293476	0.343691
0	C	0.530861	0.703521	0.676814
0	C	0.469143	0.703504	0.34357
0	C	0.469151	0.293473	0.676813
0	C	0.333957	0.528673	0.302736
0	C	0.665729	0.528724	0.717663
0	C	0.333994	0.468393	0.717769
0	C	0.665866	0.468453	0.302693
0	H	0.756739	0.823194	0.0894479
0	H	0.243099	0.173514	0.0900736
0	H	0.243085	0.823266	0.930809
0	H	0.756536	0.173456	0.930838
0	H	0.073262	0.755688	0.840428
0	H	0.0731981	0.241157	0.17982
0	H	0.926706	0.241312	0.840682
0	H	0.926871	0.75578	0.1799
0	H	0.827447	0.070652	0.769921
0	H	0.172589	0.0709469	0.250351
0	H	0.827176	0.926215	0.250283
0	H	0.172491	0.926565	0.770044
0	H	0.257233	0.323335	0.587956
0	H	0.74238	0.673838	0.588035
0	H	0.742323	0.32304	0.432458
0	H	0.257343	0.673823	0.432707
0	H	0.573394	0.258192	0.334727
0	H	0.573614	0.738601	0.685997
0	H	0.426389	0.73857	0.334348
0	H	0.426485	0.258258	0.685874
0	H	0.325568	0.57034	0.265481
0	H	0.67431	0.570521	0.754719
0	H	0.325379	0.426603	0.754821
0	H	0.674336	0.426738	0.265517
0	H	0.797356	0.887407	0.0398899
0	H	0.202966	0.109151	0.0403089
0	H	0.202883	0.887725	0.980386
0	H	0.797032	0.109221	0.980466
0	H	0.0235684	0.796224	0.905288
0	H	0.0234494	0.201079	0.114709
0	H	0.976308	0.20109	0.905819
0	H	0.976567	0.796153	0.114944
0	H	0.89112	0.0218784	0.812089
0	H	0.108671	0.022064	0.20871
0	H	0.891102	0.974985	0.20851
0	H	0.108719	0.975324	0.812065
0	H	0.298056	0.387354	0.538339
0	H	0.702078	0.609574	0.538303
0	H	0.701951	0.387346	0.482072
0	H	0.297983	0.609701	0.482342
0	H	0.524596	0.298731	0.400285
0	H	0.524701	0.698591	0.620188
0	H	0.475186	0.698488	0.400202
0	H	0.475309	0.298591	0.620204
0	H	0.389365	0.522074	0.308019
0	H	0.610294	0.522123	0.712693
0	H	0.389437	0.474869	0.712702
0	H	0.610443	0.475054	0.307839
0	H	0.842988	0.813284	0.0628794
0	H	0.156894	0.183035	0.0631875
0	H	0.156912	0.813707	0.957759
0	H	0.842776	0.183274	0.957467
0	H	0.0470141	0.841523	0.829587
0	H	0.0466713	0.155351	0.190206
0	H	0.953289	0.155546	0.830143
0	H	0.953161	0.841621	0.190547
0	H	0.816046	0.0440367	0.857534
0	H	0.18349	0.0440613	0.162755
0	H	0.816138	0.95314	0.162723
0	H	0.183689	0.953158	0.857687
0	H	0.343381	0.313006	0.56135
0	H	0.656267	0.683685	0.561106
0	H	0.656244	0.313122	0.459443
0	H	0.343495	0.683949	0.459376
0	H	0.545842	0.343558	0.323562
0	H	0.545743	0.653272	0.696661
0	H	0.454328	0.653281	0.323606
0	H	0.454127	0.343619	0.696823
0	H	0.314646	0.545258	0.353635
0	H	0.684787	0.545121	0.666602
0	H	0.314813	0.452047	0.666738
0	H	0.685061	0.451928	0.353659
