#******************************************
#
# CIF file created by Zeo++
# Zeo++ is an open source package to
# analyze microporous materials
#
#*******************************************

_cell_length_a		12.339(0)
_cell_length_b		11.6756(0)
_cell_length_c		27.5557(0)
_cell_angle_alpha		90(0)
_cell_angle_beta		90(0)
_cell_angle_gamma		90(0)

_symmetry_space_group_name_H-M		'P1'
_symmetry_Int_Tables_number		1
_symmetry_cell_setting		Monoclinic

loop_
_symmetry_equiv_pos_as_xyz
'+x,+y,+z'

loop_
_atom_site_label
_atom_site_type_symbol
_atom_site_fract_x
_atom_site_fract_y
_atom_site_fract_z
0	O	0.22897	0.87611	0.317664
0	O	0.3666	0.130057	0.794391
0	O	0.870214	0.375362	0.149791
0	O	0.726243	0.634804	0.6208
0	O	0.347041	0.851941	0.379861
0	O	0.230234	0.147649	0.848856
0	O	0.744825	0.355014	0.0904564
0	O	0.858917	0.654777	0.564586
0	O	0.46611	0.703182	0.263951
0	O	0.126662	0.301148	0.736281
0	O	0.6301	0.201647	0.203877
0	O	0.964573	0.802446	0.680447
0	O	0.364238	0.857573	0.187101
0	O	0.236359	0.145221	0.661045
0	O	0.733846	0.355011	0.281006
0	O	0.855384	0.644525	0.754458
0	O	0.263469	0.0741924	0.131028
0	O	0.332916	0.932865	0.610005
0	O	0.831072	0.571064	0.335128
0	O	0.75621	0.429925	0.806826
0	O	0.109449	0.157186	0.29745
0	O	0.486387	0.849499	0.773156
0	O	0.989265	0.656622	0.170442
0	O	0.608868	0.352297	0.64141
0	O	0.164017	0.333696	0.274929
0	O	0.42635	0.675756	0.748667
0	O	0.933226	0.832504	0.193189
0	O	0.667669	0.178423	0.666202
0	O	0.303803	0.56366	0.148157
0	O	0.287936	0.439512	0.620274
0	O	0.792947	0.0610266	0.31982
0	O	0.80093	0.938027	0.795682
0	O	0.456316	0.516412	0.108984
0	O	0.140517	0.476388	0.575371
0	O	0.642358	0.0116904	0.360134
0	O	0.950414	0.971768	0.839284
0	O	0.251676	0.309314	0.144747
0	O	0.329011	0.693293	0.620133
0	O	0.846595	0.806804	0.320456
0	O	0.76013	0.191034	0.799807
0	N	0.23956	0.1668	0.238721
0	N	0.353439	0.847338	0.715569
0	N	0.857807	0.664487	0.228544
0	N	0.740982	0.349563	0.699484
0	N	0.265268	0.257953	0.0380551
0	N	0.31462	0.765837	0.517944
0	N	0.836139	0.747781	0.425792
0	N	0.777805	0.253414	0.904185
0	C	0.302126	0.813363	0.344443
0	C	0.284619	0.189838	0.817076
0	C	0.793305	0.31433	0.124338
0	C	0.806841	0.695356	0.597541
0	C	0.31329	0.696116	0.321217
0	C	0.279395	0.307976	0.794021
0	C	0.783708	0.196036	0.146828
0	C	0.814852	0.812264	0.621486
0	C	0.34954	0.714161	0.267649
0	C	0.243159	0.290864	0.74036
0	C	0.746664	0.212721	0.200383
0	C	0.848287	0.792222	0.675334
0	C	0.302827	0.625716	0.231774
0	C	0.2896	0.379145	0.704227
0	C	0.793465	0.123976	0.236171
0	C	0.800836	0.879313	0.711676
0	C	0.354354	0.645674	0.181312
0	C	0.23975	0.356312	0.653584
0	C	0.742492	0.14353	0.286817
0	C	0.850259	0.855684	0.762314
0	C	0.33344	0.763387	0.155419
0	C	0.265303	0.238699	0.628571
0	C	0.763679	0.260926	0.312935
0	C	0.825501	0.737529	0.787017
0	C	0.211357	0.785653	0.148559
0	C	0.388159	0.219688	0.622566
0	C	0.885756	0.282521	0.320334
0	C	0.702817	0.717818	0.792847
0	C	0.184569	0.891093	0.117572
0	C	0.417167	0.112319	0.593141
0	C	0.911972	0.389662	0.350351
0	C	0.674169	0.610756	0.822499
0	C	0.200147	0.00226257	0.146013
0	C	0.399243	0.00371863	0.623068
0	C	0.896063	0.499616	0.321094
0	C	0.692149	0.502074	0.792707
0	C	0.12978	0.0229719	0.190819
0	C	0.470017	0.984643	0.667949
0	C	0.967579	0.520815	0.276694
0	C	0.623375	0.484716	0.747134
0	C	0.199235	0.0458973	0.236493
0	C	0.399111	0.966097	0.713557
0	C	0.898868	0.543863	0.230804
0	C	0.695015	0.468146	0.701621
0	C	0.13495	0.0351055	0.285721
0	C	0.462351	0.972738	0.763123
0	C	0.963677	0.534346	0.18164
0	C	0.631849	0.475538	0.651997
0	C	0.210398	0.997704	0.328445
0	C	0.384996	0.00851116	0.805423
0	C	0.887771	0.497322	0.139067
0	C	0.707883	0.513276	0.609485
0	C	0.5253	0.805007	0.277015
0	C	0.0671429	0.198481	0.748
0	C	0.570633	0.30394	0.191658
0	C	0.0245239	0.700782	0.667816
0	C	0.496426	0.907036	0.246038
0	C	0.101339	0.0951642	0.718931
0	C	0.600874	0.405757	0.22248
0	C	0.99061	0.596752	0.696504
0	C	0.478625	0.883547	0.192825
0	C	0.122996	0.113871	0.665632
0	C	0.619811	0.38289	0.275667
0	C	0.969165	0.614733	0.749854
0	C	0.391202	0.620669	0.350104
0	C	0.20508	0.387028	0.82292
0	C	0.707424	0.120787	0.117038
0	C	0.893249	0.890101	0.594101
0	C	0.320945	0.502754	0.248805
0	C	0.268792	0.502267	0.720354
0	C	0.774887	0.00129149	0.218849
0	C	0.821475	0.00294611	0.696202
0	C	0.398213	0.765396	0.108252
0	C	0.202693	0.232312	0.5809
0	C	0.698244	0.262991	0.359957
0	C	0.888059	0.730882	0.834724
0	C	0.0685017	0.886931	0.098206
0	C	0.533966	0.115083	0.574831
0	C	0.0277526	0.386598	0.370082
0	C	0.557292	0.613389	0.84061
0	C	0.0507875	0.11988	0.179097
0	C	0.545944	0.884412	0.657162
0	C	0.0458171	0.618205	0.288847
0	C	0.547197	0.384071	0.756919
0	C	0.488892	0.0123398	0.264423
0	C	0.109269	0.991721	0.739128
0	C	0.607906	0.510959	0.203926
0	C	0.982454	0.493597	0.676034
0	C	0.0275221	0.974249	0.285088
0	C	0.569228	0.0344291	0.763603
0	C	0.0710777	0.47349	0.181958
0	C	0.524336	0.536249	0.652041
0	C	0.158843	0.00955652	0.378752
0	C	0.432744	0.998358	0.856526
0	C	0.937605	0.509447	0.08845
0	C	0.658245	0.504125	0.558695
0	C	0.1803	0.12685	0.40098
0	C	0.420902	0.877841	0.877056
0	C	0.919102	0.628456	0.0673628
0	C	0.668835	0.383936	0.53773
0	C	0.368818	0.466418	0.136236
0	C	0.21859	0.531783	0.606524
0	C	0.728301	0.963226	0.331347
0	C	0.870316	0.0295921	0.810241
0	C	0.293016	0.384983	0.107686
0	C	0.292874	0.62031	0.581154
0	C	0.805305	0.880112	0.358359
0	C	0.796891	0.115392	0.837739
0	C	0.351678	0.314214	0.0678229
0	C	0.231718	0.69312	0.54276
0	C	0.748302	0.805729	0.397506
0	C	0.859749	0.183915	0.877022
0	C	0.43297	0.389489	0.0400276
0	C	0.163098	0.614889	0.510074
0	C	0.667888	0.878268	0.427023
0	C	0.929845	0.102358	0.907588
0	C	0.514368	0.442211	0.0755038
0	C	0.0818611	0.54806	0.541132
0	C	0.585597	0.93583	0.393396
0	C	0.00996121	0.0387892	0.874776
0	C	0.300755	0.142215	0.0213368
0	C	0.267356	0.877822	0.502618
0	C	0.799988	0.634546	0.444883
0	C	0.820699	0.370252	0.915066
0	C	0.225195	0.327964	0.9965
0	C	0.371239	0.708091	0.476992
0	C	0.882886	0.819736	0.465212
0	C	0.734986	0.197776	0.948936
0	C	0.595759	0.522531	0.051853
0	C	0.0138547	0.463719	0.512021
0	C	0.507293	0.0154013	0.41954
0	C	0.0766655	0.948885	0.901409
0	C	0.170807	0.231139	0.269157
0	C	0.421907	0.77893	0.744538
0	C	0.926862	0.729741	0.198663
0	C	0.672643	0.281448	0.670243
0	H	0.271287	0.986344	0.236315
0	H	0.330139	0.029481	0.713114
0	H	0.827172	0.483872	0.23066
0	H	0.763761	0.531816	0.702439
0	H	0.241628	0.893764	0.0857405
0	H	0.361715	0.107019	0.560827
0	H	0.854397	0.393509	0.382013
0	H	0.729471	0.605878	0.854812
0	H	0.384067	0.843716	0.0874028
0	H	0.219358	0.15287	0.561171
0	H	0.716942	0.338089	0.382188
0	H	0.873933	0.649978	0.853727
0	H	0.325	0.802247	0.255184
0	H	0.26868	0.202789	0.72809
0	H	0.770993	0.300808	0.213105
0	H	0.822388	0.703774	0.68672
0	H	0.443386	0.630663	0.183555
0	H	0.150248	0.367884	0.655475
0	H	0.653495	0.128561	0.284671
0	H	0.939756	0.868106	0.760713
0	H	0.174803	0.707635	0.131809
0	H	0.423237	0.297123	0.604761
0	H	0.920722	0.205374	0.338451
0	H	0.667045	0.795182	0.810447
0	H	0.403177	0.425801	0.169227
0	H	0.175152	0.56738	0.638269
0	H	0.692301	0.925016	0.298201
0	H	0.911805	0.0686218	0.778629
0	H	0.008254	0.884402	0.127862
0	H	0.592723	0.115273	0.605049
0	H	0.0884502	0.384522	0.340602
0	H	0.498716	0.611126	0.810346
0	H	0.390254	0.459048	0.0203936
0	H	0.215657	0.554352	0.48989
0	H	0.711467	0.94497	0.448045
0	H	0.878396	0.0395714	0.927058
0	H	0.555946	0.37497	0.0980262
0	H	0.0290134	0.606608	0.562903
0	H	0.541078	0.871624	0.370433
0	H	0.0628595	0.0995179	0.854208
0	H	0.212832	0.641019	0.229186
0	H	0.379825	0.365352	0.702082
0	H	0.883475	0.139228	0.238602
0	H	0.71065	0.865034	0.71358
0	H	0.171374	0.792582	0.184489
0	H	0.427663	0.216413	0.658704
0	H	0.927384	0.286535	0.284727
0	H	0.66343	0.713898	0.756703
0	H	0.351693	0.543405	0.363919
0	H	0.234096	0.475694	0.821765
0	H	0.735375	0.0318177	0.116074
0	H	0.852865	0.965857	0.579312
0	H	0.485599	0.757627	0.114512
0	H	0.114929	0.238669	0.586247
0	H	0.610668	0.262103	0.353359
0	H	0.975567	0.740883	0.829526
0	H	0.290403	0.440582	0.222039
0	H	0.298936	0.564126	0.693309
0	H	0.804565	0.938372	0.245476
0	H	0.790636	0.0639767	0.723365
0	H	0.191777	0.9419	0.402965
0	H	0.39029	0.0601806	0.880574
0	H	0.901142	0.444297	0.064026
0	H	0.699897	0.566319	0.534432
0	H	0.00037633	0.947013	0.248606
0	H	0.599204	0.0597346	0.727377
0	H	0.0990389	0.44701	0.218369
0	H	0.494033	0.559436	0.688494
0	H	0.529411	0.811994	0.17984
0	H	0.0699267	0.180816	0.650281
0	H	0.568101	0.312547	0.289187
0	H	0.0213465	0.682414	0.765267
0	H	0.398181	0.244088	0.0869055
0	H	0.175735	0.752548	0.563049
0	H	0.702031	0.736478	0.377849
0	H	0.915097	0.245026	0.85733
0	H	0.276334	0.483911	0.282379
0	H	0.31199	0.523131	0.754094
0	H	0.820006	0.982575	0.185388
0	H	0.779023	0.0245051	0.662386
0	H	0.230465	0.655405	0.321239
0	H	0.364367	0.344013	0.794087
0	H	0.867215	0.156673	0.146733
0	H	0.731337	0.851563	0.621005
0	H	0.492754	0.960193	0.17003
0	H	0.115073	0.0338422	0.644323
0	H	0.607595	0.460299	0.29824
0	H	0.978448	0.534794	0.771084
0	H	0.376731	0.690566	0.0857022
0	H	0.223965	0.306144	0.557629
0	H	0.714753	0.184788	0.381384
0	H	0.864502	0.80271	0.858591
0	H	0.054725	0.808715	0.0767798
0	H	0.550175	0.193588	0.553981
0	H	0.0418471	0.308629	0.391618
0	H	0.540301	0.693226	0.860473
0	H	0.264525	0.20296	0.206229
0	H	0.324785	0.814107	0.68324
0	H	0.831072	0.700055	0.260864
0	H	0.768021	0.316232	0.732097
0	H	0.961439	0.0293916	0.29935
0	H	0.634545	0.981246	0.779664
0	H	0.13672	0.528477	0.167189
0	H	0.459399	0.48337	0.63561
0	H	0.992968	0.0949905	0.150488
0	H	0.60606	0.906595	0.629139
0	H	0.103727	0.593312	0.317417
0	H	0.486671	0.405153	0.784957
0	H	0.290585	0.04116	0.326319
0	H	0.305423	0.963979	0.802589
0	H	0.807463	0.540475	0.141514
0	H	0.787708	0.469109	0.611632
0	H	0.205614	0.415302	0.0086947
0	H	0.411024	0.629864	0.490325
0	H	0.915665	0.899254	0.449552
0	H	0.705587	0.111076	0.940444
0	H	0.0012741	0.142329	0.211206
0	H	0.592619	0.859921	0.689831
0	H	0.0951425	0.641655	0.256782
0	H	0.501061	0.36089	0.723938
0	H	0.0920915	0.198047	0.166668
0	H	0.502474	0.807944	0.644399
0	H	0.00376157	0.695854	0.301431
0	H	0.590474	0.307179	0.769373
0	H	0.280937	0.333973	0.965456
0	H	0.319279	0.685925	0.445905
0	H	0.82594	0.842105	0.494458
0	H	0.792862	0.191677	0.979208
0	H	0.221933	0.432561	0.0930817
0	H	0.366018	0.577777	0.565884
0	H	0.876333	0.927699	0.373156
0	H	0.724029	0.0719748	0.852752
0	H	0.0800904	0.943007	0.198292
0	H	0.521737	0.0633205	0.674634
0	H	0.0176867	0.4412	0.26933
0	H	0.571801	0.563776	0.740778
0	H	0.0265078	0.895966	0.307396
0	H	0.567261	0.113892	0.785115
0	H	0.0716068	0.395059	0.159718
0	H	0.525895	0.617006	0.631429
0	H	0.149191	0.288914	0.983467
0	H	0.434975	0.76607	0.463228
0	H	0.950868	0.772572	0.481899
0	H	0.66479	0.24802	0.961673
0	H	0.311294	0.0874705	0.0539104
0	H	0.256589	0.930089	0.535871
0	H	0.782978	0.578017	0.413571
0	H	0.827642	0.417004	0.880109
0	H	0.0704019	0.99335	0.376833
0	H	0.518997	0.0248245	0.856684
0	H	0.0254429	0.489798	0.0894029
0	H	0.572092	0.530776	0.559363
0	H	0.376219	0.141146	0.000161552
0	H	0.189511	0.871841	0.483472
0	H	0.728595	0.637057	0.468703
0	H	0.899569	0.371738	0.933566
0	H	0.236391	0.10306	0.999205
0	H	0.324557	0.923999	0.478822
0	H	0.867084	0.594564	0.465762
0	H	0.762224	0.417684	0.937588
0	H	0.475581	0.338766	0.0120139
0	H	0.12008	0.665756	0.482226
0	H	0.625651	0.824402	0.454091
0	H	0.97396	0.150449	0.935934
0	H	0.458906	0.592268	0.326757
0	H	0.123027	0.387608	0.807068
0	H	0.625835	0.119152	0.133385
0	H	0.957538	0.920827	0.618831
0	H	0.428059	0.665987	0.380844
0	H	0.197239	0.361145	0.860933
0	H	0.698455	0.151042	0.0796325
0	H	0.934872	0.845826	0.564345
0	H	0.406836	0.48511	0.255515
0	H	0.182243	0.517903	0.726514
0	H	0.688925	0.984645	0.21172
0	H	0.908089	0.0192616	0.690621
0	H	0.470927	0.0875158	0.242645
0	H	0.130263	0.915156	0.71885
0	H	0.626503	0.586187	0.225526
0	H	0.961731	0.416923	0.696272
0	H	0.144283	0.133431	0.437249
0	H	0.454992	0.872227	0.913698
0	H	0.954567	0.635869	0.031011
0	H	0.631583	0.37863	0.501706
0	H	0.610153	0.777001	0.270772
0	H	0.982994	0.224956	0.739008
0	H	0.486028	0.275943	0.198602
0	H	0.108718	0.727326	0.676791
0	H	0.620387	0.589114	0.077819
0	H	0.971485	0.40422	0.536386
0	H	0.482623	0.0855303	0.395256
0	H	0.122525	0.896798	0.875283
0	H	0.563229	0.565937	0.0198485
0	H	0.0629994	0.411729	0.487309
0	H	0.542686	0.0548242	0.451923
0	H	0.0253281	0.890042	0.922186
0	H	0.513422	0.822064	0.316434
0	H	0.0736795	0.183596	0.787627
0	H	0.580836	0.321551	0.152149
0	H	0.0175806	0.687182	0.628123
0	H	0.669731	0.475621	0.0415418
0	H	0.951512	0.509635	0.490706
0	H	0.432911	0.969279	0.430086
0	H	0.135374	0.988931	0.925926
0	H	0.503037	0.0327109	0.302363
0	H	0.09322	0.974079	0.77713
0	H	0.593068	0.530856	0.165982
0	H	0.997735	0.476582	0.637944
0	H	0.267173	0.144537	0.404497
0	H	0.335872	0.851201	0.879181
0	H	0.832673	0.648964	0.0643242
0	H	0.753721	0.357836	0.533964
0	H	0.144761	0.195465	0.378507
0	H	0.463852	0.814324	0.854332
0	H	0.956948	0.694786	0.0903542
0	H	0.628157	0.320032	0.561048
0	H	0.049597	0.96038	0.0750367
0	H	0.552124	0.0418426	0.551499
0	H	0.0455995	0.460297	0.393275
0	H	0.539475	0.541763	0.864844
0	H	0.245543	0.228385	0.13209
0	H	0.339223	0.774389	0.608083
0	H	0.852992	0.725132	0.332537
0	H	0.750801	0.271225	0.81238
