#******************************************
#
# CIF file created by Zeo++
# Zeo++ is an open source package to
# analyze microporous materials
#
#*******************************************

_cell_length_a		26.835(0)
_cell_length_b		26.8458(0)
_cell_length_c		10.309(0)
_cell_angle_alpha		90(0)
_cell_angle_beta		90(0)
_cell_angle_gamma		120.262(0)

_symmetry_space_group_name_H-M		'P1'
_symmetry_Int_Tables_number		1
_symmetry_cell_setting		Monoclinic

loop_
_symmetry_equiv_pos_as_xyz
'+x,+y,+z'

loop_
_atom_site_label
_atom_site_type_symbol
_atom_site_fract_x
_atom_site_fract_y
_atom_site_fract_z
0	O	0.0907815	0.599029	0.0684857
0	O	0.417148	0.498846	0.0661189
0	O	0.517586	0.923633	0.0704926
0	O	0.926308	0.414683	0.014706
0	O	0.60042	0.515549	0.0174289
0	O	0.499733	0.0901074	0.0173653
0	O	0.757299	0.931122	0.408237
0	O	0.0834901	0.83114	0.408798
0	O	0.185733	0.259335	0.40844
0	O	0.59375	0.747782	0.337877
0	O	0.267827	0.853319	0.337566
0	O	0.163391	0.421343	0.337282
0	O	0.423525	0.266298	0.747333
0	O	0.749478	0.160964	0.747362
0	O	0.85381	0.592807	0.747322
0	O	0.259992	0.0829402	0.676858
0	O	0.933826	0.183073	0.676048
0	O	0.831419	0.754795	0.676346
0	O	0.222316	0.615103	0.707938
0	O	0.400693	0.613537	0.706096
0	O	0.402016	0.793401	0.70944
0	O	0.79467	0.398868	0.376659
0	O	0.61649	0.40041	0.378744
0	O	0.615018	0.220486	0.37679
0	O	0.888854	0.946391	0.0439059
0	O	0.0687925	0.948113	0.0442347
0	O	0.0682282	0.126769	0.0439076
0	O	0.460863	0.733166	0.70586
0	O	0.282491	0.734674	0.707835
0	O	0.281304	0.554964	0.705895
0	O	0.556201	0.280793	0.379647
0	O	0.734568	0.27929	0.377538
0	O	0.735894	0.459168	0.378892
0	O	0.128296	0.0677153	0.0414033
0	O	0.948416	0.0659668	0.0409498
0	O	0.948995	0.887409	0.0412662
0	H	0.245998	0.595079	0.718699
0	H	0.420896	0.657385	0.71707
0	H	0.358134	0.769837	0.720619
0	H	0.770984	0.418889	0.365946
0	H	0.596341	0.356556	0.368022
0	H	0.658893	0.244032	0.365432
0	H	0.912978	0.926804	0.0543026
0	H	0.0887669	0.992013	0.0545755
0	H	0.0242902	0.102587	0.054061
0	H	0.436911	0.752956	0.696166
0	H	0.262451	0.690811	0.697293
0	H	0.325159	0.578741	0.69427
0	H	0.580037	0.26089	0.389562
0	H	0.75454	0.323156	0.387944
0	H	0.692044	0.43541	0.39057
0	H	0.104152	0.0872808	0.0310297
0	H	0.928463	0.0220691	0.0306467
0	H	0.992938	0.911607	0.0311813
0	C	0.12477	0.570518	0.0977926
0	C	0.445903	0.561539	0.0959939
0	C	0.454745	0.890251	0.0993366
0	C	0.89247	0.44341	0.986052
0	C	0.571397	0.452779	0.988257
0	C	0.562489	0.123821	0.987684
0	C	0.790638	0.901648	0.434876
0	C	0.11291	0.89412	0.435903
0	C	0.122707	0.225534	0.435542
0	C	0.560692	0.777642	0.31247
0	C	0.238051	0.79011	0.313343
0	C	0.226619	0.455188	0.312924
0	C	0.456555	0.236424	0.772903
0	C	0.779223	0.224157	0.771827
0	C	0.790585	0.558928	0.771666
0	C	0.226615	0.112385	0.650351
0	C	0.904314	0.120068	0.649224
0	C	0.89445	0.788598	0.649253
0	C	0.0872741	0.514251	0.171601
0	C	0.502028	0.58036	0.17017
0	C	0.43658	0.928031	0.172999
0	C	0.929996	0.499733	0.912458
0	C	0.515229	0.433977	0.914304
0	C	0.58076	0.0861774	0.913779
0	C	0.752791	0.845151	0.507612
0	C	0.169458	0.913175	0.508442
0	C	0.103964	0.263084	0.508214
0	C	0.598492	0.834198	0.239921
0	C	0.181249	0.770346	0.241306
0	C	0.246271	0.418331	0.240427
0	C	0.418714	0.179878	0.845446
0	C	0.835992	0.243867	0.843965
0	C	0.770893	0.595736	0.844243
0	C	0.26441	0.168898	0.57762
0	C	0.847758	0.101013	0.576731
0	C	0.913198	0.75102	0.576723
0	H	0.112972	0.493516	0.194233
0	H	0.523021	0.626925	0.193266
0	H	0.38996	0.902513	0.196052
0	H	0.904296	0.520487	0.890022
0	H	0.494144	0.387379	0.891484
0	H	0.627353	0.11181	0.890545
0	H	0.77793	0.823689	0.528783
0	H	0.190975	0.959943	0.5296
0	H	0.0571499	0.237726	0.529232
0	H	0.573233	0.85559	0.219292
0	H	0.160155	0.72353	0.221079
0	H	0.293082	0.444419	0.219896
0	H	0.443935	0.158459	0.866188
0	H	0.857105	0.290677	0.864311
0	H	0.724087	0.569608	0.864808
0	H	0.239211	0.190303	0.556511
0	H	0.826215	0.0542322	0.555708
0	H	0.960016	0.776367	0.555746
0	H	0.0524873	0.483265	0.10562
0	H	0.532981	0.57672	0.104261
0	H	0.440648	0.962741	0.106828
0	H	0.964786	0.530654	0.978536
0	H	0.484366	0.437757	0.980249
0	H	0.576833	0.0514908	0.979837
0	H	0.717678	0.814819	0.44139
0	H	0.199777	0.908626	0.442189
0	H	0.108795	0.298119	0.442068
0	H	0.633715	0.864523	0.305919
0	H	0.150872	0.774818	0.307519
0	H	0.241865	0.383414	0.306397
0	H	0.38351	0.14956	0.779408
0	H	0.866383	0.23941	0.777773
0	H	0.77524	0.630633	0.778298
0	H	0.299517	0.19925	0.643842
0	H	0.817461	0.105618	0.642947
0	H	0.908337	0.715992	0.642934
0	C	0.0585226	0.520491	0.296226
0	C	0.495382	0.545056	0.294592
0	C	0.472	0.956917	0.297326
0	C	0.958772	0.493638	0.78772
0	C	0.521786	0.469145	0.789702
0	C	0.545277	0.0572717	0.789553
0	C	0.724564	0.851222	0.633276
0	C	0.163293	0.878797	0.634091
0	C	0.138402	0.291316	0.633975
0	C	0.626513	0.828196	0.11384
0	C	0.186616	0.80404	0.114984
0	C	0.212419	0.389831	0.114209
0	C	0.390657	0.185911	0.971437
0	C	0.83052	0.210089	0.970214
0	C	0.804754	0.624244	0.970464
0	C	0.292658	0.162905	0.451908
0	C	0.853892	0.135318	0.450982
0	C	0.878788	0.722755	0.450967
0	C	0.0320971	0.557632	0.265059
0	C	0.458028	0.481289	0.262834
0	C	0.535735	0.983157	0.26573
0	C	0.985225	0.4565	0.818605
0	C	0.559138	0.532939	0.821182
0	C	0.481554	0.0310331	0.821314
0	C	0.69789	0.888258	0.603281
0	C	0.12618	0.814808	0.604011
0	C	0.202381	0.318403	0.603897
0	C	0.653435	0.791362	0.143524
0	C	0.223188	0.868172	0.143891
0	C	0.148293	0.361864	0.143315
0	C	0.363778	0.222774	0.941619
0	C	0.793938	0.145974	0.941157
0	C	0.868886	0.652256	0.941344
0	C	0.319358	0.125878	0.481783
0	C	0.891004	0.199319	0.480934
0	C	0.814803	0.695683	0.480993
0	C	0.989114	0.556975	0.343589
0	C	0.458286	0.438674	0.341123
0	C	0.578572	0.0263584	0.343525
0	C	0.0283267	0.457348	0.740164
0	C	0.55871	0.575489	0.742992
0	C	0.438712	0.987989	0.743245
0	C	0.654525	0.886963	0.681699
0	C	0.127399	0.772663	0.682209
0	C	0.244665	0.361821	0.682431
0	C	0.697339	0.793405	0.0658296
0	C	0.220542	0.909597	0.065932
0	C	0.106735	0.317672	0.0651212
0	C	0.319869	0.220772	0.0192096
0	C	0.79647	0.104488	0.0191348
0	C	0.910425	0.696449	0.0195722
0	C	0.362737	0.127239	0.403304
0	C	0.889716	0.241425	0.402724
0	C	0.772542	0.652241	0.402495
0	H	0.97436	0.529444	0.429779
0	H	0.485652	0.4514	0.427538
0	H	0.56607	0.0415516	0.429227
0	H	0.0431956	0.485063	0.654277
0	H	0.531213	0.56271	0.656796
0	H	0.451208	0.972913	0.65734
0	H	0.639351	0.858698	0.766688
0	H	0.155635	0.785851	0.767262
0	H	0.231569	0.376718	0.767704
0	H	0.712447	0.821732	0.980967
0	H	0.191873	0.895738	0.981611
0	H	0.120481	0.302899	0.980728
0	H	0.304781	0.192514	0.104192
0	H	0.825101	0.1183	0.103531
0	H	0.896667	0.711165	0.104038
0	H	0.377925	0.155558	0.31841
0	H	0.861414	0.228202	0.317798
0	H	0.785643	0.637291	0.317327
0	C	0.96453	0.590664	0.313806
0	C	0.424371	0.380209	0.310888
0	C	0.637014	0.0505796	0.313574
0	C	0.0528672	0.423587	0.769635
0	C	0.592636	0.633978	0.773053
0	C	0.380267	0.963798	0.7731
0	C	0.630101	0.92094	0.653445
0	C	0.093407	0.714026	0.653622
0	C	0.303292	0.386631	0.653942
0	C	0.722513	0.760168	0.0948846
0	C	0.253619	0.968367	0.0940833
0	C	0.0479605	0.291844	0.093044
0	C	0.294629	0.253921	0.989857
0	C	0.763335	0.0457342	0.990929
0	C	0.969206	0.722372	0.991508
0	C	0.387144	0.0932203	0.431363
0	C	0.923741	0.300076	0.431156
0	C	0.713898	0.62748	0.430835
0	H	0.931506	0.589682	0.376769
0	H	0.425009	0.34797	0.373713
0	H	0.669457	0.0837141	0.376088
0	H	0.0859862	0.424732	0.706727
0	H	0.591849	0.666158	0.710299
0	H	0.347828	0.930803	0.710344
0	H	0.596826	0.919453	0.716419
0	H	0.0948156	0.68218	0.716477
0	H	0.335258	0.41986	0.717135
0	H	0.756376	0.762406	0.0327558
0	H	0.250914	0.999632	0.0317223
0	H	0.0165806	0.257836	0.0304381
0	H	0.260748	0.251709	0.0518716
0	H	0.765928	0.0144139	0.0533209
0	H	0.000580684	0.756386	0.0541163
0	H	0.420423	0.094764	0.36831
0	H	0.922271	0.331886	0.368295
0	H	0.681955	0.59423	0.367658
0	C	0.982171	0.625468	0.202696
0	C	0.389734	0.36312	0.199555
0	C	0.653803	0.0323701	0.203012
0	C	0.0350274	0.388472	0.880243
0	C	0.62747	0.651155	0.884092
0	C	0.363473	0.981863	0.883885
0	C	0.64832	0.956764	0.544006
0	C	0.057694	0.696255	0.543981
0	C	0.320918	0.368851	0.544026
0	C	0.704328	0.724167	0.204018
0	C	0.289986	0.986944	0.202635
0	C	0.0294843	0.309541	0.201681
0	C	0.312762	0.289789	0.880487
0	C	0.727054	0.0272331	0.882235
0	C	0.987673	0.704754	0.882739
0	C	0.368872	0.0572701	0.540572
0	C	0.95956	0.317901	0.540623
0	C	0.696244	0.645347	0.540537
0	H	0.962674	0.651548	0.178925
0	H	0.36345	0.317415	0.175444
0	H	0.699496	0.0515989	0.178976
0	H	0.0544525	0.362301	0.903737
0	H	0.653758	0.696873	0.908098
0	H	0.317774	0.96269	0.907779
0	H	0.629039	0.983141	0.52142
0	H	0.0313064	0.650424	0.521155
0	H	0.366754	0.388465	0.521264
0	H	0.724169	0.69835	0.227233
0	H	0.315625	0.0328514	0.225328
0	H	0.98357	0.289143	0.224056
0	H	0.292837	0.315505	0.85701
0	H	0.701374	0.981333	0.859509
0	H	0.0335863	0.725248	0.860227
0	H	0.388104	0.0308302	0.562957
0	H	0.985983	0.363741	0.563325
0	H	0.650401	0.625797	0.563154
0	C	0.0243614	0.62695	0.121955
0	C	0.38858	0.404099	0.119093
0	C	0.61259	0.989945	0.123029
0	C	0.992695	0.386786	0.960845
0	C	0.628799	0.61023	0.964409
0	C	0.404698	0.0240737	0.964266
0	C	0.690934	0.958937	0.463441
0	C	0.0556435	0.736748	0.463499
0	C	0.280286	0.326245	0.463277
0	C	0.661046	0.721117	0.28366
0	C	0.293604	0.947147	0.282518
0	C	0.0694108	0.353017	0.281896
0	C	0.356061	0.292822	0.800967
0	C	0.723564	0.067078	0.802282
0	C	0.947772	0.661256	0.802565
0	C	0.326239	0.0550373	0.621179
0	C	0.961666	0.277433	0.621109
0	C	0.736866	0.687966	0.621313
0	H	0.038111	0.653028	0.0342426
0	H	0.36251	0.391753	0.0313737
0	H	0.624619	0.975693	0.0358043
0	H	0.978745	0.360413	0.0481152
0	H	0.655052	0.622639	0.0518681
0	H	0.392662	0.0381654	0.0517304
0	H	0.705229	0.986047	0.377333
0	H	0.0287342	0.723874	0.377052
0	H	0.293079	0.312298	0.37673
0	H	0.646705	0.693857	0.369554
0	H	0.321117	0.960687	0.367986
0	H	0.0559965	0.366941	0.367473
0	H	0.370353	0.319966	0.714886
0	H	0.696137	0.0535953	0.71668
0	H	0.96118	0.647389	0.716891
0	H	0.31188	0.0278033	0.707087
0	H	0.988668	0.290352	0.707419
0	H	0.724045	0.701983	0.707702
0	C	0.0494928	0.593426	0.154592
0	C	0.422368	0.462936	0.152113
0	C	0.553768	0.965189	0.155842
0	C	0.96766	0.420435	0.928622
0	C	0.59499	0.551373	0.931593
0	C	0.463523	0.0488109	0.931537
0	C	0.71576	0.924951	0.494283
0	C	0.0895809	0.795773	0.494823
0	C	0.22126	0.300932	0.494545
0	C	0.635644	0.754526	0.252283
0	C	0.260414	0.887978	0.251985
0	C	0.128596	0.379183	0.251499
0	C	0.381542	0.259515	0.832691
0	C	0.756788	0.126237	0.83294
0	C	0.888582	0.634996	0.833085
0	C	0.301462	0.0890963	0.590608
0	C	0.927686	0.218397	0.58998
0	C	0.795904	0.713212	0.590204
0	C	0.102314	0.546032	0.407042
0	C	0.469829	0.563066	0.405464
0	C	0.453553	0.9133	0.408459
0	C	0.914972	0.468127	0.676935
0	C	0.547302	0.451059	0.678913
0	C	0.563661	0.100829	0.678281
0	C	0.768717	0.876891	0.743398
0	C	0.137768	0.897265	0.744138
0	C	0.119758	0.247071	0.743822
0	C	0.582167	0.802564	0.00419302
0	C	0.21224	0.785647	0.00507628
0	C	0.230728	0.434032	0.00443112
0	C	0.434966	0.211497	0.081175
0	C	0.80483	0.228437	0.0800767
0	C	0.786461	0.580023	0.080189
0	C	0.248509	0.137252	0.341784
0	C	0.879406	0.116833	0.340949
0	C	0.897437	0.766968	0.341055
0	C	0.134134	0.519491	0.441981
0	C	0.496449	0.621593	0.440655
0	C	0.395	0.881623	0.443965
0	C	0.883115	0.494647	0.642142
0	C	0.520787	0.39249	0.644191
0	C	0.622191	0.132457	0.642509
0	C	0.800854	0.850641	0.777887
0	C	0.164214	0.955916	0.778195
0	C	0.0610318	0.214431	0.777457
0	C	0.549672	0.828633	0.971315
0	C	0.185789	0.727037	0.970684
0	C	0.289289	0.466441	0.96933
0	C	0.467292	0.185283	0.114373
0	C	0.831222	0.287047	0.114454
0	C	0.727908	0.547636	0.115335
0	C	0.216397	0.163529	0.307259
0	C	0.853038	0.0581616	0.307126
0	C	0.956173	0.799641	0.307483
0	H	0.127588	0.480819	0.390422
0	H	0.535183	0.654034	0.389248
0	H	0.362861	0.888171	0.392657
0	H	0.889677	0.53332	0.693721
0	H	0.482136	0.360059	0.695858
0	H	0.654365	0.125948	0.693777
0	H	0.794641	0.812139	0.72609
0	H	0.202727	0.98831	0.72605
0	H	0.0287212	0.220371	0.725186
0	H	0.555996	0.867003	0.0238094
0	H	0.146946	0.694678	0.021808
0	H	0.321685	0.460147	0.0201031
0	H	0.460845	0.146817	0.0621304
0	H	0.870045	0.319427	0.0632944
0	H	0.695516	0.553952	0.0646068
0	H	0.222629	0.202043	0.359026
0	H	0.814595	0.0257577	0.35944
0	H	0.988485	0.79372	0.359812
0	C	0.174996	0.541847	0.541093
0	C	0.474095	0.63991	0.539751
0	C	0.376301	0.840861	0.543235
0	C	0.842187	0.47226	0.543183
0	C	0.543126	0.374115	0.545185
0	C	0.640825	0.173094	0.542983
0	C	0.841732	0.873094	0.876978
0	C	0.141946	0.974418	0.877139
0	C	0.0423466	0.173494	0.876353
0	C	0.508388	0.806213	0.873105
0	C	0.208431	0.708503	0.87262
0	C	0.307715	0.507598	0.870947
0	C	0.508566	0.207679	0.212626
0	C	0.808525	0.305538	0.212485
0	C	0.70948	0.506461	0.213682
0	C	0.175516	0.141086	0.208175
0	C	0.875289	0.0396591	0.208135
0	C	0.974857	0.840571	0.208592
0	H	0.20072	0.521714	0.565198
0	H	0.494321	0.6859	0.564068
0	H	0.330267	0.815218	0.56769
0	H	0.816435	0.492377	0.519199
0	H	0.522965	0.3281	0.52119
0	H	0.686834	0.198667	0.518252
0	H	0.867713	0.853201	0.900705
0	H	0.162033	0.0204945	0.900505
0	H	0.996245	0.147221	0.899585
0	H	0.482179	0.826007	0.85074
0	H	0.18831	0.662441	0.849066
0	H	0.353749	0.533715	0.846746
0	H	0.534648	0.187771	0.235246
0	H	0.828572	0.351604	0.235968
0	H	0.663445	0.480344	0.237873
0	H	0.149562	0.161008	0.184428
0	H	0.855237	0.99357	0.184921
0	H	0.0209591	0.866853	0.185365
0	C	0.183119	0.590929	0.607191
0	C	0.424908	0.598613	0.605591
0	C	0.417258	0.832673	0.608895
0	C	0.833992	0.423137	0.477161
0	C	0.592232	0.415393	0.479042
0	C	0.599836	0.18127	0.477436
0	C	0.849588	0.921983	0.943445
0	C	0.0930383	0.93317	0.94393
0	C	0.0834513	0.166082	0.943536
0	C	0.500541	0.757528	0.805653
0	C	0.257783	0.749708	0.807003
0	C	0.266438	0.515449	0.805752
0	C	0.51654	0.256465	0.279833
0	C	0.759242	0.264294	0.278211
0	C	0.750755	0.498614	0.278888
0	C	0.167593	0.0921555	0.141823
0	C	0.924119	0.0809024	0.141159
0	C	0.933751	0.848003	0.141448
0	C	0.151963	0.618234	0.576007
0	C	0.397567	0.539959	0.574375
0	C	0.475931	0.863753	0.577305
0	C	0.865164	0.395837	0.508219
0	C	0.619479	0.474083	0.509836
0	C	0.541192	0.150251	0.509286
0	C	0.818179	0.949048	0.912546
0	C	0.0658349	0.874433	0.913582
0	C	0.142267	0.198045	0.913623
0	C	0.532414	0.730751	0.834567
0	C	0.284898	0.808454	0.837282
0	C	0.207763	0.48372	0.837068
0	C	0.484796	0.28336	0.25065
0	C	0.732204	0.205548	0.247992
0	C	0.80943	0.530313	0.247494
0	C	0.198941	0.065035	0.172792
0	C	0.951259	0.139667	0.171298
0	C	0.874938	0.81601	0.171277
0	H	0.158904	0.656354	0.628767
0	H	0.359426	0.508475	0.627083
0	H	0.507108	0.856789	0.629853
0	H	0.858146	0.357668	0.455553
0	H	0.657561	0.505547	0.456917
0	H	0.509984	0.157178	0.456784
0	H	0.824917	0.987017	0.965583
0	H	0.0279297	0.843052	0.967082
0	H	0.173565	0.191772	0.967516
0	H	0.525738	0.693024	0.780512
0	H	0.32311	0.83983	0.784547
0	H	0.176367	0.490443	0.78482
0	H	0.491551	0.32115	0.304563
0	H	0.694048	0.174134	0.300821
0	H	0.840823	0.523574	0.299715
0	H	0.192133	0.0270168	0.119875
0	H	0.989103	0.171046	0.117641
0	H	0.843638	0.822288	0.117404
0	C	0.111917	0.5954	0.475052
0	C	0.420399	0.522944	0.473383
0	C	0.493327	0.90369	0.476177
0	C	0.905321	0.418736	0.608957
0	C	0.596625	0.491167	0.610639
0	C	0.523856	0.110397	0.610588
0	C	0.778208	0.9262	0.811512
0	C	0.0884931	0.857237	0.812617
0	C	0.159657	0.238056	0.812649
0	C	0.572797	0.753583	0.934915
0	C	0.261753	0.825665	0.937229
0	C	0.190666	0.443391	0.93731
0	C	0.444445	0.260562	0.150257
0	C	0.755341	0.188385	0.14792
0	C	0.826517	0.570621	0.147216
0	C	0.238955	0.0879053	0.273773
0	C	0.928587	0.15687	0.272225
0	C	0.857533	0.775949	0.272144
0	H	0.0884083	0.617463	0.449169
0	H	0.398282	0.477235	0.447341
0	H	0.539048	0.927087	0.449873
0	H	0.928854	0.396683	0.634728
0	H	0.618649	0.536914	0.636323
0	H	0.478153	0.087048	0.637035
0	H	0.754625	0.948173	0.785515
0	H	0.0664073	0.811471	0.786998
0	H	0.205492	0.262056	0.787425
0	H	0.59679	0.731859	0.959288
0	H	0.283664	0.871462	0.962569
0	H	0.14493	0.419406	0.963362
0	H	0.420538	0.282357	0.125691
0	H	0.733452	0.142594	0.122561
0	H	0.872245	0.594582	0.121075
0	H	0.262495	0.0658916	0.299808
0	H	0.950616	0.202656	0.297654
0	H	0.81169	0.751908	0.297261
0	C	0.0104882	0.459592	0.336677
0	C	0.556129	0.557979	0.335452
0	C	0.459572	0.00502586	0.337718
0	C	0.00675903	0.554586	0.747451
0	C	0.461005	0.456143	0.748944
0	C	0.557654	0.00913699	0.749065
0	C	0.676936	0.790223	0.674251
0	C	0.224271	0.892559	0.675099
0	C	0.124958	0.338565	0.675519
0	C	0.673971	0.889244	0.0727901
0	C	0.125279	0.78947	0.0749718
0	C	0.226877	0.343181	0.0736064
0	C	0.343125	0.124877	0.0123666
0	C	0.891824	0.22462	0.0104249
0	C	0.79025	0.670861	0.0110876
0	C	0.340258	0.223929	0.410998
0	C	0.792904	0.121522	0.409998
0	C	0.892227	0.675493	0.409516
0	H	0.991233	0.460173	0.43003
0	H	0.555326	0.538097	0.42886
0	H	0.479605	0.0242887	0.43104
0	H	0.0259663	0.554108	0.653953
0	H	0.461721	0.475851	0.65535
0	H	0.537684	0.989969	0.655638
0	H	0.658097	0.790694	0.76825
0	H	0.223711	0.873054	0.768886
0	H	0.144493	0.357464	0.769449
0	H	0.692181	0.88894	0.977912
0	H	0.125082	0.807581	0.9799
0	H	0.208648	0.324817	0.978541
0	H	0.324834	0.125192	0.107131
0	H	0.891926	0.206346	0.105347
0	H	0.808573	0.689315	0.106037
0	H	0.359027	0.223513	0.316864
0	H	0.793418	0.140872	0.316029
0	H	0.872784	0.656648	0.315487
0	H	0.0267751	0.429643	0.345429
0	H	0.586314	0.604439	0.344235
0	H	0.41324	0.988844	0.346636
0	H	0.990425	0.584509	0.739067
0	H	0.430824	0.409668	0.740578
0	H	0.603984	0.0252804	0.740259
0	H	0.693556	0.76047	0.682135
0	H	0.253993	0.939154	0.683457
0	H	0.0783925	0.321583	0.683836
0	H	0.657378	0.919069	0.0670916
0	H	0.095578	0.742767	0.0703157
0	H	0.273588	0.360504	0.0685569
0	H	0.35965	0.0950026	0.0182161
0	H	0.921508	0.271322	0.0154842
0	H	0.743537	0.653486	0.0163777
0	H	0.323612	0.253669	0.403388
0	H	0.763165	0.0749173	0.402017
0	H	0.938797	0.692456	0.401416
0	H	0.975585	0.441458	0.264352
0	H	0.574169	0.541197	0.263286
0	H	0.476575	0.0398579	0.265257
0	H	0.0417017	0.57267	0.819703
0	H	0.443016	0.473048	0.820949
0	H	0.540572	0.974239	0.821347
0	H	0.641665	0.771853	0.602952
0	H	0.242703	0.876004	0.603486
0	H	0.14173	0.373818	0.60427
0	H	0.709628	0.907354	0.143102
0	H	0.107306	0.806986	0.145348
0	H	0.209417	0.307508	0.143822
0	H	0.307533	0.10681	0.941898
0	H	0.909869	0.207227	0.939924
0	H	0.807591	0.706471	0.940716
0	H	0.375578	0.242272	0.482183
0	H	0.774513	0.138201	0.481414
0	H	0.875368	0.6402	0.480672
0	C	0.139394	0.559021	0.962252
0	C	0.457583	0.587944	0.960647
0	C	0.428675	0.875924	0.963601
0	C	0.878025	0.454861	0.121831
0	C	0.559732	0.426605	0.123854
0	C	0.588856	0.13846	0.123102
0	C	0.804587	0.89048	0.298313
0	C	0.124012	0.919552	0.299588
0	C	0.0972992	0.211254	0.299185
0	C	0.547204	0.788765	0.449527
0	C	0.227371	0.765939	0.450895
0	C	0.250787	0.468641	0.4505
0	C	0.470073	0.225275	0.6359
0	C	0.789929	0.248397	0.634339
0	C	0.766417	0.5455	0.634093
0	C	0.212684	0.123527	0.786957
0	C	0.8932	0.0947237	0.78563
0	C	0.919857	0.802936	0.785611
0	H	0.159621	0.598463	0.902043
0	H	0.41808	0.568895	0.900628
0	H	0.447238	0.855115	0.903752
0	H	0.85766	0.415353	0.1818
0	H	0.599271	0.445622	0.183748
0	H	0.570124	0.159044	0.183174
0	H	0.826297	0.930373	0.239835
0	H	0.0841293	0.900807	0.240992
0	H	0.115771	0.190041	0.240498
0	H	0.525627	0.748835	0.507895
0	H	0.267509	0.784887	0.508607
0	H	0.231831	0.489591	0.508481
0	H	0.49166	0.265184	0.577464
0	H	0.749796	0.229475	0.576617
0	H	0.785268	0.524446	0.576132
0	H	0.191005	0.0836215	0.845393
0	H	0.933091	0.113434	0.844196
0	H	0.901315	0.824096	0.844254
0	H	0.100673	0.527249	0.909532
0	H	0.488965	0.58078	0.907542
0	H	0.436649	0.914819	0.910624
0	H	0.916842	0.486453	0.174565
0	H	0.528477	0.434005	0.176834
0	H	0.58131	0.0997172	0.176123
0	H	0.765401	0.860345	0.244664
0	H	0.154467	0.91124	0.24581
0	H	0.105991	0.250239	0.245597
0	H	0.586584	0.818845	0.502711
0	H	0.197401	0.775124	0.504207
0	H	0.241577	0.429337	0.503428
0	H	0.430707	0.19519	0.582697
0	H	0.819895	0.23923	0.580957
0	H	0.775722	0.584822	0.581119
0	H	0.251872	0.153681	0.840582
0	H	0.862801	0.103146	0.839332
0	H	0.91122	0.763971	0.839223
0	H	0.169525	0.542786	0.966189
0	H	0.474387	0.63453	0.96489
0	H	0.381941	0.846428	0.967248
0	H	0.848064	0.471311	0.118298
0	H	0.542754	0.379981	0.120054
0	H	0.635521	0.168257	0.118925
0	H	0.833141	0.872339	0.300357
0	H	0.141743	0.966314	0.302145
0	H	0.0504671	0.18216	0.301549
0	H	0.518697	0.806965	0.448317
0	H	0.209226	0.719102	0.450449
0	H	0.297642	0.497691	0.450152
0	H	0.498572	0.207067	0.637231
0	H	0.808077	0.295233	0.634905
0	H	0.719546	0.516555	0.634451
0	H	0.184094	0.141628	0.78499
0	H	0.875375	0.0479442	0.783245
0	H	0.966679	0.832096	0.783251
0	C	0.178076	0.615035	0.171275
0	C	0.401553	0.570171	0.169661
0	C	0.444869	0.836722	0.172802
0	C	0.839031	0.399052	0.912726
0	C	0.61555	0.443797	0.914723
0	C	0.571869	0.177122	0.913986
0	C	0.844455	0.945332	0.508137
0	C	0.0692125	0.903704	0.509717
0	C	0.11283	0.172057	0.509184
0	C	0.506664	0.734334	0.239279
0	C	0.281346	0.779703	0.240148
0	C	0.237137	0.509101	0.240206
0	C	0.510557	0.279736	0.846191
0	C	0.735889	0.234497	0.845067
0	C	0.780082	0.504994	0.844277
0	C	0.172778	0.0686914	0.577192
0	C	0.94793	0.110338	0.575487
0	C	0.9043	0.842032	0.575471
0	H	0.206468	0.651763	0.109194
0	H	0.365249	0.562608	0.107317
0	H	0.453109	0.808314	0.111124
0	H	0.810891	0.362065	0.974443
0	H	0.65205	0.45173	0.97682
0	H	0.563689	0.20555	0.975735
0	H	0.87323	0.981992	0.446374
0	H	0.0327093	0.89603	0.447965
0	H	0.120584	0.143337	0.447492
0	H	0.477479	0.69788	0.301054
0	H	0.317988	0.787632	0.301738
0	H	0.229372	0.537736	0.302179
0	H	0.53989	0.316052	0.784264
0	H	0.699483	0.227027	0.783197
0	H	0.787843	0.47638	0.782219
0	H	0.144219	0.0318426	0.638737
0	H	0.984594	0.118325	0.637045
0	H	0.896443	0.870725	0.637016
0	H	0.20329	0.596262	0.20826
0	H	0.420689	0.614038	0.208482
0	H	0.400472	0.81163	0.208686
0	H	0.813594	0.417823	0.877186
0	H	0.59633	0.399723	0.877127
0	H	0.616127	0.202292	0.877317
0	H	0.869135	0.925825	0.544259
0	H	0.0888323	0.947824	0.547213
0	H	0.0686016	0.14722	0.546145
0	H	0.482548	0.754385	0.202767
0	H	0.261333	0.735275	0.204406
0	H	0.281547	0.533823	0.204241
0	H	0.534506	0.25962	0.883361
0	H	0.755983	0.278771	0.881857
0	H	0.735672	0.480257	0.880232
0	H	0.147861	0.0880812	0.541938
0	H	0.928316	0.066083	0.538853
0	H	0.948546	0.866915	0.538629
0	H	0.166327	0.632333	0.254856
0	H	0.383584	0.54039	0.252056
0	H	0.473578	0.848177	0.257124
0	H	0.850602	0.382106	0.828205
0	H	0.633256	0.473125	0.831505
0	H	0.542871	0.165392	0.830145
0	H	0.833401	0.962914	0.592254
0	H	0.051374	0.87446	0.59302
0	H	0.141887	0.183504	0.592818
0	H	0.517455	0.716427	0.155307
0	H	0.298994	0.808296	0.155711
0	H	0.208465	0.49812	0.155963
0	H	0.499722	0.297839	0.929729
0	H	0.717902	0.205529	0.92882
0	H	0.808764	0.515958	0.928506
0	H	0.183794	0.0513814	0.492519
0	H	0.965537	0.139265	0.491614
0	H	0.875292	0.830536	0.491739
