#******************************************
#
# CIF file created by Zeo++
# Zeo++ is an open source package to
# analyze microporous materials
#
#*******************************************

_cell_length_a		24.3025(0)
_cell_length_b		24.1635(0)
_cell_length_c		9.62931(0)
_cell_angle_alpha		90(0)
_cell_angle_beta		90(0)
_cell_angle_gamma		120.218(0)

_symmetry_space_group_name_H-M		'P1'
_symmetry_Int_Tables_number		1
_symmetry_cell_setting		Monoclinic

loop_
_symmetry_equiv_pos_as_xyz
'+x,+y,+z'

loop_
_atom_site_label
_atom_site_type_symbol
_atom_site_fract_x
_atom_site_fract_y
_atom_site_fract_z
0	C	0.222642	0.951335	0.759505
0	C	0.0849326	0.294819	0.1056
0	C	0.734862	0.810848	0.431254
0	C	0.807979	0.0844047	0.263212
0	C	0.948073	0.740015	0.601071
0	C	0.297816	0.224918	0.927046
0	C	0.175641	0.967374	0.826048
0	C	0.0666893	0.230387	0.170124
0	C	0.798762	0.858308	0.494835
0	C	0.853892	0.0675481	0.332256
0	C	0.966416	0.803305	0.671388
0	C	0.233713	0.177718	0.99021
0	H	0.133139	0.951444	0.761658
0	H	0.0812482	0.202881	0.104871
0	H	0.82455	0.901559	0.431447
0	H	0.897161	0.0836364	0.270583
0	H	0.951513	0.831723	0.610345
0	H	0.207985	0.134315	0.927246
0	H	0.197315	0.0190149	0.84325
0	H	0.0151154	0.201542	0.186406
0	H	0.829031	0.837011	0.507336
0	H	0.831674	0.0157627	0.348191
0	H	0.0180056	0.832063	0.687373
0	H	0.203499	0.199153	0.00128303
0	H	0.159256	0.943328	0.927952
0	H	0.0899432	0.236602	0.272301
0	H	0.792337	0.873868	0.598894
0	H	0.869051	0.0908124	0.435371
0	H	0.943331	0.795301	0.774464
0	H	0.239772	0.162416	0.0948218
0	C	0.278487	0.964323	0.851667
0	C	0.0745977	0.338657	0.201296
0	C	0.692942	0.755039	0.525628
0	C	0.751666	0.0717021	0.353441
0	C	0.957542	0.693924	0.690955
0	C	0.339543	0.28095	0.0211172
0	H	0.262738	0.942603	0.954688
0	H	0.0972395	0.343401	0.302692
0	H	0.686414	0.771503	0.627092
0	H	0.766789	0.0940932	0.455942
0	H	0.932541	0.685169	0.790436
0	H	0.345681	0.264822	0.123327
0	H	0.310646	0.0159539	0.866395
0	H	0.0236747	0.320309	0.21984
0	H	0.713536	0.724304	0.543654
0	H	0.719742	0.0201095	0.369411
0	H	0.00813905	0.712415	0.713767
0	H	0.318987	0.311833	0.037303
0	H	0.306852	0.944813	0.805652
0	H	0.0946189	0.387199	0.157124
0	H	0.645092	0.724662	0.480342
0	H	0.723161	0.0905438	0.3051
0	H	0.939248	0.647039	0.639319
0	H	0.387543	0.311111	0.976325
0	C	0.243492	0.980017	0.615142
0	C	0.0557265	0.288941	0.962798
0	C	0.740209	0.788858	0.2863
0	C	0.787844	0.0558838	0.118522
0	C	0.977862	0.748771	0.45791
0	C	0.293022	0.246614	0.781403
0	H	0.20283	0.960755	0.542299
0	H	0.0704549	0.263975	0.888538
0	H	0.768916	0.829668	0.216432
0	H	0.828865	0.07474	0.0467906
0	H	0.96267	0.774419	0.386659
0	H	0.263142	0.205744	0.712667
0	H	0.27867	0.969009	0.57062
0	H	0.0706373	0.336487	0.918607
0	H	0.692707	0.760569	0.238749
0	H	0.753277	0.0674422	0.0727205
0	H	0.964013	0.702307	0.409336
0	H	0.340572	0.273363	0.733294
0	H	0.264679	0.0324123	0.617468
0	H	0.00351518	0.261869	0.968806
0	H	0.762425	0.75903	0.28961
0	H	0.766057	0.0034445	0.120999
0	H	0.0300592	0.776641	0.464657
0	H	0.272491	0.277998	0.783298
0	C	0.159259	0.834989	0.821839
0	C	0.200455	0.344893	0.166053
0	C	0.683695	0.874979	0.496262
0	C	0.872528	0.20086	0.3253
0	C	0.832536	0.690259	0.660962
0	C	0.348933	0.160994	0.994804
0	O	0.14955	0.844898	0.941913
0	O	0.190344	0.324869	0.2859
0	O	0.704654	0.885177	0.615283
0	O	0.882367	0.191072	0.445357
0	O	0.842615	0.709811	0.781187
0	O	0.328145	0.151467	0.113922
0	O	0.188078	0.881401	0.72313
0	O	0.154318	0.328576	0.0678837
0	O	0.699424	0.845171	0.396873
0	O	0.843179	0.154378	0.227023
0	O	0.878718	0.707145	0.562599
0	O	0.333133	0.190309	0.894407
0	N	0.137257	0.775451	0.759368
0	N	0.260027	0.38168	0.103648
0	N	0.646415	0.897508	0.436267
0	N	0.895074	0.260484	0.262528
0	N	0.772942	0.653596	0.598725
0	N	0.386055	0.13806	0.935555
0	C	0.107431	0.713931	0.838221
0	C	0.320628	0.411415	0.184639
0	C	0.616368	0.927638	0.518625
0	C	0.925519	0.321942	0.341592
0	C	0.712278	0.623926	0.679532
0	C	0.416535	0.108626	0.0188683
0	H	0.0558919	0.699274	0.854724
0	H	0.332837	0.3729	0.204663
0	H	0.654019	0.979213	0.536275
0	H	0.976837	0.335866	0.358434
0	H	0.699975	0.662463	0.698461
0	H	0.379302	0.0569026	0.0367106
0	C	0.140343	0.719504	0.978828
0	C	0.315634	0.440953	0.32286
0	C	0.589429	0.893791	0.658888
0	C	0.892547	0.316812	0.481824
0	C	0.717206	0.594853	0.81848
0	C	0.442919	0.142712	0.159131
0	O	0.197782	0.740574	0.99201
0	O	0.295372	0.478227	0.332437
0	O	0.552328	0.836053	0.671408
0	O	0.835107	0.295781	0.494845
0	O	0.737278	0.557457	0.829007
0	O	0.47953	0.200545	0.171785
0	C	0.113613	0.666275	0.74193
0	C	0.37009	0.464272	0.0888187
0	C	0.562152	0.922335	0.425819
0	C	0.920136	0.370223	0.245846
0	C	0.662852	0.570804	0.584077
0	C	0.471225	0.114462	0.926911
0	H	0.123484	0.632394	0.799818
0	H	0.406257	0.506601	0.147358
0	H	0.519527	0.913134	0.486707
0	H	0.910752	0.404293	0.304339
0	H	0.627147	0.528249	0.642853
0	H	0.513883	0.12407	0.988216
0	H	0.0685217	0.636168	0.685461
0	H	0.396963	0.446312	0.0297514
0	H	0.577545	0.9678	0.369581
0	H	0.965317	0.400072	0.18957
0	H	0.635383	0.588331	0.525857
0	H	0.456312	0.0690503	0.87089
0	C	0.16779	0.707198	0.640108
0	C	0.331475	0.481937	0.990469
0	C	0.546419	0.867482	0.323596
0	C	0.865705	0.329918	0.144082
0	C	0.701465	0.553659	0.484485
0	C	0.486604	0.169083	0.824316
0	H	0.160784	0.683197	0.537559
0	H	0.35545	0.499522	0.888445
0	H	0.528747	0.874783	0.222317
0	H	0.873036	0.353938	0.0414687
0	H	0.677374	0.536381	0.382413
0	H	0.505074	0.162169	0.723752
0	H	0.213873	0.715041	0.679762
0	H	0.326369	0.521403	0.0343341
0	H	0.50797	0.821458	0.364923
0	H	0.819986	0.323011	0.183892
0	H	0.706733	0.514091	0.527104
0	H	0.524287	0.215417	0.866125
0	C	0.168224	0.770623	0.628374
0	C	0.266421	0.420737	0.97666
0	C	0.608473	0.866191	0.307489
0	C	0.863838	0.265763	0.132451
0	C	0.766402	0.61501	0.470905
0	C	0.423898	0.168917	0.806359
0	H	0.139102	0.770988	0.539677
0	H	0.263671	0.391752	0.884556
0	H	0.636987	0.89531	0.217074
0	H	0.892052	0.264399	0.0429975
0	H	0.768846	0.644254	0.379522
0	H	0.39581	0.138658	0.716651
0	H	0.216813	0.81269	0.61486
0	H	0.226452	0.43041	0.967537
0	H	0.600803	0.817149	0.293018
0	H	0.814785	0.224317	0.12031
0	H	0.806458	0.605531	0.460545
0	H	0.430559	0.217418	0.7894
0	N	0.0991975	0.698748	0.0914246
0	N	0.335957	0.421491	0.43775
0	N	0.61088	0.934848	0.77199
0	N	0.933803	0.338158	0.594221
0	N	0.697022	0.614749	0.932907
0	N	0.421446	0.10162	0.272155
0	H	0.0506691	0.680436	0.0772145
0	H	0.352875	0.389906	0.426591
0	H	0.64257	0.983459	0.758357
0	H	0.982364	0.356717	0.580047
0	H	0.679931	0.646175	0.921273
0	H	0.390265	0.0529214	0.257942
0	C	0.119899	0.702625	0.23863
0	C	0.333089	0.441293	0.582982
0	C	0.594986	0.913405	0.91904
0	C	0.913154	0.334608	0.741313
0	C	0.699992	0.595399	0.0785388
0	C	0.436975	0.123059	0.419283
0	C	0.171035	0.773276	0.276327
0	C	0.263276	0.423137	0.62105
0	C	0.614557	0.862285	0.953539
0	C	0.862511	0.26391	0.77988
0	C	0.769815	0.61357	0.116639
0	C	0.417248	0.174117	0.453188
0	O	0.213366	0.784424	0.360776
0	O	0.25287	0.454972	0.705396
0	O	0.584286	0.819637	0.0387465
0	O	0.820346	0.252616	0.864848
0	O	0.78015	0.581718	0.201081
0	O	0.44738	0.216842	0.538313
0	C	0.149907	0.660994	0.263189
0	C	0.375597	0.513712	0.600648
0	C	0.52345	0.882968	0.944953
0	C	0.882664	0.375887	0.764597
0	C	0.657422	0.523058	0.0974982
0	C	0.50849	0.153587	0.445874
0	H	0.117812	0.610946	0.233649
0	H	0.425229	0.530121	0.572741
0	H	0.505907	0.915314	0.916677
0	H	0.914898	0.426158	0.736544
0	H	0.607842	0.506637	0.0691906
0	H	0.526222	0.121568	0.41629
0	H	0.16176	0.661419	0.374736
0	H	0.375401	0.527768	0.710049
0	H	0.512151	0.870854	0.056472
0	H	0.869867	0.374991	0.875599
0	H	0.65757	0.509398	0.207297
0	H	0.519529	0.165145	0.557629
0	H	0.194211	0.678762	0.203565
0	H	0.359075	0.539859	0.535573
0	H	0.496312	0.838563	0.884964
0	H	0.838899	0.358256	0.70303
0	H	0.673863	0.496591	0.0332442
0	H	0.535598	0.198343	0.386952
0	C	0.0619731	0.682608	0.331815
0	C	0.352419	0.404253	0.681021
0	C	0.633797	0.971206	0.0131489
0	C	0.971185	0.355308	0.834585
0	C	0.680623	0.632868	0.175189
0	C	0.397977	0.0652863	0.513277
0	H	0.0269553	0.631177	0.323137
0	H	0.400204	0.412235	0.657726
0	H	0.614966	0.00415054	0.0141658
0	H	0.00650181	0.406532	0.823159
0	H	0.63178	0.622522	0.155021
0	H	0.416596	0.0321769	0.514595
0	H	0.0361888	0.707834	0.306077
0	H	0.319489	0.352235	0.676057
0	H	0.683935	0.000134547	0.980611
0	H	0.996509	0.329377	0.811323
0	H	0.711814	0.684937	0.164246
0	H	0.347851	0.0365029	0.480682
0	H	0.075316	0.691606	0.442206
0	H	0.353914	0.419009	0.78973
0	H	0.633677	0.956706	0.121797
0	H	0.958072	0.347828	0.945198
0	H	0.681843	0.620803	0.284886
0	H	0.398059	0.0798773	0.621937
0	N	0.165022	0.8228	0.219276
0	N	0.213477	0.367662	0.56378
0	N	0.669357	0.868806	0.892856
0	N	0.868711	0.214468	0.722997
0	N	0.819681	0.668948	0.0592329
0	N	0.362335	0.167265	0.392357
0	H	0.138366	0.816152	0.130067
0	H	0.219722	0.346519	0.475903
0	H	0.688917	0.896173	0.804051
0	H	0.895155	0.221029	0.6335
0	H	0.813436	0.689837	0.970933
0	H	0.342979	0.139899	0.303514
0	C	0.213362	0.890252	0.249101
0	C	0.146568	0.349163	0.592733
0	C	0.688891	0.820881	0.920405
0	C	0.820667	0.14697	0.75365
0	C	0.886569	0.68732	0.0882124
0	C	0.342585	0.215032	0.419634
0	H	0.219663	0.895655	0.365569
0	H	0.14101	0.351102	0.708909
0	H	0.688868	0.814476	0.0367282
0	H	0.814821	0.141682	0.870258
0	H	0.892128	0.685468	0.204418
0	H	0.342515	0.221413	0.536028
0	C	0.280838	0.911104	0.190991
0	C	0.126429	0.395742	0.530264
0	C	0.642181	0.752874	0.862252
0	C	0.75304	0.125596	0.696359
0	C	0.906523	0.640475	0.0261738
0	C	0.389371	0.283114	0.361994
0	O	0.325072	0.96556	0.214164
0	O	0.0716094	0.384759	0.54604
0	O	0.653498	0.709264	0.881858
0	O	0.70927	0.0708084	0.718813
0	O	0.961289	0.651329	0.0420839
0	O	0.378426	0.326845	0.383629
0	C	0.193811	0.936911	0.190379
0	C	0.100124	0.281995	0.536359
0	C	0.754756	0.841564	0.859173
0	C	0.840394	0.100544	0.694506
0	C	0.933131	0.754392	0.0317645
0	C	0.276764	0.194308	0.358224
0	H	0.231223	0.986083	0.221133
0	H	0.0513109	0.270181	0.567279
0	H	0.765784	0.803162	0.883861
0	H	0.802799	0.0512489	0.723881
0	H	0.981922	0.766025	0.0624738
0	H	0.265691	0.232641	0.383394
0	H	0.195334	0.935918	0.0739532
0	H	0.100787	0.283656	0.419852
0	H	0.752006	0.842348	0.742831
0	H	0.839556	0.101998	0.578015
0	H	0.932387	0.75281	0.915201
0	H	0.279532	0.193712	0.241902
0	C	0.127673	0.925884	0.231753
0	C	0.111829	0.22732	0.580109
0	C	0.81071	0.907078	0.904836
0	C	0.90632	0.111658	0.737723
0	C	0.921819	0.809398	0.07499
0	C	0.220758	0.12872	0.403395
0	H	0.0907127	0.886189	0.165145
0	H	0.151695	0.230421	0.514786
0	H	0.810795	0.945224	0.837231
0	H	0.943609	0.151597	0.672135
0	H	0.881821	0.806266	0.0100671
0	H	0.220633	0.0907406	0.335012
0	C	0.125994	0.987277	0.198974
0	C	0.0514058	0.163207	0.548042
0	C	0.873093	0.907087	0.878265
0	C	0.908523	0.0505345	0.70522
0	C	0.98238	0.873192	0.0414508
0	C	0.158502	0.129008	0.377112
0	H	0.131564	0.998062	0.0877313
0	H	0.0411608	0.156943	0.436594
0	H	0.879071	0.899787	0.768326
0	H	0.904007	0.040244	0.593727
0	H	0.992168	0.879037	0.929811
0	H	0.1529	0.137061	0.267412
0	H	0.164716	0.0291452	0.252828
0	H	0.00926279	0.159803	0.599709
0	H	0.874487	0.868565	0.936639
0	H	0.869425	0.00837961	0.757325
0	H	0.0245801	0.876443	0.0925175
0	H	0.157081	0.167268	0.43652
0	H	0.0810759	0.983459	0.231686
0	H	0.0557612	0.122551	0.583676
0	H	0.914628	0.952356	0.910164
0	H	0.953244	0.054458	0.739966
0	H	0.978543	0.914166	0.0769028
0	H	0.116813	0.0835948	0.40768
0	C	0.110156	0.906759	0.383631
0	C	0.130467	0.230075	0.732669
0	C	0.807383	0.924391	0.0560084
0	C	0.922738	0.130593	0.890024
0	C	0.903717	0.80755	0.227636
0	C	0.223834	0.110686	0.554101
0	H	0.0652961	0.904389	0.41127
0	H	0.136496	0.189489	0.760376
0	H	0.851188	0.967836	0.0871917
0	H	0.968043	0.134226	0.918698
0	H	0.898558	0.848748	0.254629
0	H	0.179871	0.0672145	0.58454
0	H	0.147001	0.941378	0.454808
0	H	0.0940736	0.229081	0.802753
0	H	0.800802	0.885943	0.127715
0	H	0.885968	0.0953158	0.960307
0	H	0.94009	0.808369	0.297529
0	H	0.230568	0.148811	0.626934
0	H	0.10435	0.859525	0.405627
0	H	0.175461	0.27387	0.756241
0	H	0.767765	0.933323	0.0734133
0	H	0.927105	0.177223	0.911997
0	H	0.858454	0.764254	0.252253
0	H	0.263258	0.101382	0.570962
0	N	0.289691	0.866647	0.118941
0	N	0.172028	0.450011	0.462062
0	N	0.587967	0.742814	0.793036
0	N	0.743554	0.169875	0.625175
0	N	0.860784	0.586037	0.958647
0	N	0.443409	0.293138	0.29213
0	H	0.251105	0.824285	0.0834958
0	H	0.214476	0.453801	0.429046
0	H	0.583072	0.781045	0.760257
0	H	0.781821	0.212332	0.589063
0	H	0.818362	0.58231	0.925666
0	H	0.447776	0.254859	0.257308
0	C	0.352773	0.873799	0.0860257
0	C	0.165063	0.506076	0.426222
0	C	0.532557	0.678673	0.760395
0	C	0.680074	0.161638	0.592374
0	C	0.8673	0.529605	0.923754
0	C	0.498923	0.357282	0.259516
0	C	0.391022	0.879195	0.221479
0	C	0.156883	0.53812	0.560329
0	C	0.49969	0.640526	0.896451
0	C	0.641861	0.156038	0.727997
0	C	0.875533	0.49784	0.0582921
0	C	0.532289	0.39554	0.395163
0	O	0.448111	0.897383	0.2144
0	O	0.136776	0.575502	0.551783
0	O	0.460703	0.583012	0.890231
0	O	0.584609	0.137077	0.721043
0	O	0.895132	0.46004	0.0500301
0	O	0.571668	0.452923	0.388127
0	C	0.340815	0.812159	0.0136579
0	C	0.227733	0.556792	0.359584
0	C	0.482417	0.688717	0.686101
0	C	0.691084	0.222785	0.519246
0	C	0.804362	0.478887	0.858053
0	C	0.548794	0.347011	0.184622
0	H	0.312229	0.769224	0.0773005
0	H	0.268655	0.57284	0.429646
0	H	0.477187	0.727566	0.732117
0	H	0.719103	0.265943	0.582587
0	H	0.763645	0.463118	0.928613
0	H	0.553899	0.308054	0.230566
0	H	0.385658	0.814086	0.987406
0	H	0.225227	0.598983	0.327198
0	H	0.435518	0.64493	0.686755
0	H	0.645852	0.219922	0.492618
0	H	0.806629	0.436536	0.825874
0	H	0.595795	0.39066	0.185082
0	H	0.313633	0.803962	0.916619
0	H	0.239277	0.537669	0.266931
0	H	0.495608	0.702516	0.576683
0	H	0.718425	0.23121	0.422347
0	H	0.79265	0.497869	0.765394
0	H	0.535479	0.333207	0.0752636
0	C	0.392751	0.932948	0.996365
0	C	0.108182	0.487078	0.330579
0	C	0.552034	0.63857	0.672983
0	C	0.640426	0.102126	0.503452
0	C	0.923847	0.547768	0.82758
0	C	0.479177	0.397298	0.172569
0	H	0.369872	0.928708	0.894939
0	H	0.114536	0.469191	0.229872
0	H	0.570035	0.660604	0.570278
0	H	0.661837	0.107449	0.399779
0	H	0.917325	0.565125	0.726397
0	H	0.46138	0.375426	0.0696351
0	H	0.440345	0.939717	0.977264
0	H	0.10151	0.528106	0.3102
0	H	0.511265	0.590079	0.656588
0	H	0.591717	0.0932012	0.489568
0	H	0.93006	0.506351	0.808159
0	H	0.519643	0.445971	0.156633
0	H	0.398981	0.976558	0.0470815
0	H	0.0638801	0.448798	0.376877
0	H	0.589991	0.633805	0.723876
0	H	0.63687	0.0591778	0.551914
0	H	0.968392	0.586116	0.872832
0	H	0.440948	0.401565	0.223601
0	N	0.35917	0.861699	0.347775
0	N	0.174734	0.524743	0.687443
0	N	0.514459	0.673125	0.0221313
0	N	0.673824	0.174369	0.854145
0	N	0.85836	0.511956	0.185452
0	N	0.517703	0.363201	0.521146
0	H	0.310288	0.841974	0.355354
0	H	0.19488	0.49595	0.694866
0	H	0.544081	0.722362	0.0283036
0	H	0.722689	0.194193	0.860791
0	H	0.838293	0.540833	0.19244
0	H	0.487669	0.31404	0.526666
0	C	0.391262	0.857493	0.473855
0	C	0.179348	0.562055	0.812388
0	C	0.475781	0.642711	0.147149
0	C	0.641579	0.178964	0.97948
0	C	0.853651	0.474831	0.310816
0	C	0.55661	0.393667	0.645836
0	H	0.43931	0.863589	0.444406
0	H	0.173772	0.604452	0.781622
0	H	0.432853	0.594985	0.118107
0	H	0.59362	0.172948	0.949097
0	H	0.859144	0.432349	0.280645
0	H	0.599544	0.441384	0.616436
0	C	0.402736	0.912848	0.571132
0	C	0.124055	0.518839	0.910047
0	C	0.517125	0.630428	0.249361
0	C	0.629517	0.123609	0.0773601
0	C	0.908849	0.518185	0.408596
0	C	0.515489	0.406076	0.748335
0	O	0.365378	0.924674	0.627438
0	O	0.111597	0.469411	0.967509
0	O	0.564428	0.667673	0.312675
0	O	0.66651	0.111617	0.134832
0	O	0.920755	0.567284	0.466898
0	O	0.467577	0.368865	0.809887
0	C	0.350907	0.793334	0.553748
0	C	0.243438	0.585688	0.890747
0	C	0.454171	0.686643	0.217793
0	C	0.681875	0.243334	0.0585815
0	C	0.789669	0.4515	0.389472
0	C	0.578337	0.349729	0.715947
0	H	0.307896	0.793079	0.597408
0	H	0.244553	0.542432	0.929614
0	H	0.498135	0.732458	0.248607
0	H	0.725044	0.2439	0.102065
0	H	0.789034	0.494914	0.429053
0	H	0.534431	0.303759	0.746028
0	C	0.32788	0.735468	0.457635
0	C	0.300515	0.623137	0.794426
0	C	0.415557	0.702975	0.11761
0	C	0.704342	0.300943	0.961876
0	C	0.732358	0.41467	0.293473
0	C	0.617096	0.333951	0.614915
0	H	0.299898	0.737646	0.3704
0	H	0.298093	0.595171	0.702441
0	H	0.440733	0.722581	0.0192901
0	H	0.732218	0.298876	0.874321
0	H	0.735195	0.442696	0.201259
0	H	0.59201	0.314889	0.516236
0	H	0.296396	0.690979	0.513824
0	H	0.345006	0.635061	0.848145
0	H	0.407133	0.73982	0.162639
0	H	0.73572	0.345633	0.0175449
0	H	0.688162	0.403715	0.347313
0	H	0.625585	0.296945	0.658727
0	H	0.367437	0.730901	0.414696
0	H	0.304837	0.668465	0.758699
0	H	0.368749	0.661144	0.0934812
0	H	0.664456	0.305092	0.919438
0	H	0.727094	0.36888	0.258193
0	H	0.663861	0.375986	0.59145
0	C	0.390552	0.790039	0.673534
0	C	0.246562	0.626787	0.0146733
0	C	0.415256	0.653639	0.347777
0	C	0.642247	0.246739	0.178267
0	C	0.786299	0.410009	0.512861
0	C	0.617046	0.382149	0.846538
0	H	0.403835	0.8288	0.74878
0	H	0.209513	0.599104	0.0916721
0	H	0.444794	0.650114	0.429654
0	H	0.628928	0.208031	0.253638
0	H	0.82341	0.437383	0.589998
0	H	0.587398	0.385329	0.92864
0	H	0.435213	0.793396	0.637959
0	H	0.240718	0.667435	0.983578
0	H	0.375903	0.604911	0.326219
0	H	0.597646	0.243398	0.142327
0	H	0.79185	0.369242	0.481316
0	H	0.656433	0.430961	0.825917
0	H	0.363567	0.744421	0.730162
0	H	0.292879	0.646731	0.0676569
0	H	0.394086	0.680927	0.391517
0	H	0.669246	0.292431	0.234663
0	H	0.740016	0.390199	0.56591
0	H	0.638166	0.354662	0.889552
0	C	0.491968	0.0044335	0.68392
0	C	0.0332611	0.517324	0.0205638
0	C	0.518818	0.540375	0.358471
0	C	0.539705	0.0320696	0.188695
0	C	0.999809	0.520118	0.519385
0	C	0.514654	0.495942	0.860205
0	H	0.527411	0.000636987	0.747102
0	H	0.0300344	0.557889	0.0617422
0	H	0.478113	0.500866	0.411627
0	H	0.502091	0.0344196	0.24642
0	H	0.00226847	0.479476	0.562748
0	H	0.555099	0.533594	0.917761
0	H	0.454427	0.00388805	0.747958
0	H	0.0402915	0.490332	0.102961
0	H	0.551336	0.577064	0.431409
0	H	0.576444	0.0340417	0.257871
0	H	0.99311	0.547971	0.60029
0	H	0.480201	0.458464	0.929172
0	H	0.514827	0.0475318	0.618213
0	H	0.991067	0.485701	0.958263
0	H	0.544383	0.522637	0.295218
0	H	0.519595	0.988989	0.123051
0	H	0.0422658	0.550874	0.456925
0	H	0.491283	0.516036	0.796769
0	O	0.467256	0.949702	0.590847
0	O	0.0879991	0.547429	0.928207
0	O	0.490034	0.565329	0.263358
0	O	0.564902	0.0869365	0.0959143
0	O	0.945351	0.49009	0.426265
0	O	0.543482	0.471154	0.764775
