#******************************************
#
# CIF file created by Zeo++
# Zeo++ is an open source package to
# analyze microporous materials
#
#*******************************************

_cell_length_a		23.365(0)
_cell_length_b		6.61365(0)
_cell_length_c		19.1379(0)
_cell_angle_alpha		90(0)
_cell_angle_beta		110.91(0)
_cell_angle_gamma		90(0)

_symmetry_space_group_name_H-M		'P1'
_symmetry_Int_Tables_number		1
_symmetry_cell_setting		Monoclinic

loop_
_symmetry_equiv_pos_as_xyz
'+x,+y,+z'

loop_
_atom_site_label
_atom_site_type_symbol
_atom_site_fract_x
_atom_site_fract_y
_atom_site_fract_z
0	S	0.888684	0.712587	0.0745038
0	S	0.179912	0.711835	0.952792
0	S	0.391634	0.210459	0.0799572
0	S	0.676967	0.210095	0.947269
0	O	0.76084	0.438098	0.860395
0	O	0.307725	0.439012	0.166937
0	O	0.260522	0.920903	0.869724
0	O	0.808081	0.921619	0.157549
0	O	0.793915	0.474514	0.763285
0	O	0.274456	0.474093	0.263932
0	O	0.291149	0.958619	0.770632
0	O	0.777277	0.957686	0.256522
0	O	0.889467	0.362028	0.732732
0	O	0.178861	0.363331	0.294601
0	O	0.380196	0.859816	0.735933
0	O	0.688242	0.860261	0.291265
0	O	0.961595	0.605068	0.774084
0	O	0.106728	0.606008	0.252784
0	O	0.462657	0.0648687	0.777601
0	O	0.605827	0.0654404	0.249434
0	O	0.795024	0.407971	0.128563
0	O	0.273341	0.407067	0.898423
0	O	0.29445	0.917886	0.132522
0	O	0.773927	0.917326	0.894429
0	O	0.825374	0.442927	0.253836
0	O	0.242996	0.443065	0.773202
0	O	0.321936	0.95974	0.257119
0	O	0.746406	0.959996	0.769871
0	O	0.493616	0.57927	0.0939147
0	O	0.574753	0.578691	0.933389
0	O	0.991118	0.102126	0.0924
0	O	0.077194	0.102443	0.934898
0	O	0.515132	0.495061	0.209197
0	O	0.553325	0.495266	0.818065
0	O	0.0109292	0.00201543	0.205729
0	O	0.0575878	0.00206653	0.821644
0	O	0.967057	0.424522	0.270931
0	O	0.101388	0.424526	0.756253
0	O	0.464544	0.934286	0.279626
0	O	0.603874	0.934351	0.747545
0	O	0.952306	0.700834	0.332129
0	O	0.116031	0.700783	0.694945
0	O	0.449396	0.209718	0.341072
0	O	0.618778	0.209698	0.685903
0	O	0.95972	0.785244	0.55018
0	O	0.108236	0.785021	0.476892
0	O	0.461325	0.29307	0.560543
0	O	0.606741	0.29276	0.466569
0	O	0.942812	0.0347198	0.612641
0	O	0.126272	0.0338242	0.415005
0	O	0.44366	0.542179	0.622706
0	O	0.625349	0.541226	0.404862
0	N	0.891177	0.487353	0.961086
0	N	0.177309	0.486406	0.0660811
0	N	0.391398	0.978707	0.96704
0	N	0.677099	0.978227	0.0600854
0	N	0.972903	0.488531	0.923029
0	N	0.0955604	0.487903	0.104095
0	N	0.471874	0.977063	0.926779
0	N	0.596631	0.976906	0.100348
0	N	0.529862	0.524199	0.154841
0	N	0.538536	0.524015	0.872394
0	N	0.0265968	0.0394309	0.152676
0	N	0.0418012	0.0395978	0.874598
0	N	0.951127	0.965645	0.557926
0	N	0.117323	0.965194	0.469374
0	N	0.451924	0.472939	0.567977
0	N	0.616534	0.472421	0.459299
0	C	0.894607	0.578524	0.159725
0	C	0.173852	0.578214	0.867421
0	C	0.394429	0.0859915	0.165927
0	C	0.674035	0.0858438	0.861205
0	C	0.854216	0.504484	0.00906129
0	C	0.214253	0.503308	0.0180803
0	C	0.355657	0.000204246	0.0161416
0	C	0.712844	0.999461	0.0109543
0	C	0.856202	0.318517	0.0570092
0	C	0.212108	0.317576	0.969955
0	C	0.358301	0.817577	0.0658465
0	C	0.710061	0.816999	0.961139
0	C	0.859652	0.379859	0.135434
0	C	0.208705	0.379278	0.891585
0	C	0.359712	0.886396	0.142664
0	C	0.708667	0.886096	0.884345
0	C	0.962149	0.546552	0.205041
0	C	0.106308	0.546688	0.822121
0	C	0.461365	0.0572568	0.214572
0	C	0.607084	0.0574943	0.812575
0	C	0.9576	0.518513	0.329582
0	C	0.110755	0.518461	0.697539
0	C	0.454916	0.0275775	0.338257
0	C	0.613345	0.0275415	0.688806
0	C	0.956413	0.36961	0.38759
0	C	0.111881	0.369521	0.639515
0	C	0.453993	0.877502	0.396132
0	C	0.614248	0.877413	0.630941
0	C	0.938894	0.441509	0.446022
0	C	0.129383	0.441344	0.581062
0	C	0.43618	0.947896	0.454558
0	C	0.632111	0.947651	0.572553
0	C	0.936953	0.310012	0.502139
0	C	0.131335	0.309798	0.52497
0	C	0.435137	0.815954	0.510947
0	C	0.633174	0.815628	0.516174
0	C	0.952099	0.105878	0.498242
0	C	0.116223	0.105637	0.528932
0	C	0.45157	0.612905	0.507583
0	C	0.616754	0.612592	0.519571
0	C	0.968939	0.0323361	0.439562
0	C	0.0993206	0.0322146	0.587585
0	C	0.468464	0.540662	0.448784
0	C	0.599737	0.540529	0.578325
0	C	0.971245	0.165371	0.383965
0	C	0.0969915	0.165374	0.643144
0	C	0.469806	0.674173	0.392806
0	C	0.598363	0.674147	0.634248
0	C	0.955219	0.490578	0.983518
0	C	0.113263	0.4894	0.0436223
0	C	0.455397	0.982852	0.988075
0	C	0.613102	0.982439	0.0390535
0	C	0.91962	0.481742	0.860276
0	C	0.148835	0.481692	0.166878
0	C	0.417947	0.96715	0.864972
0	C	0.650571	0.967289	0.162165
0	C	0.919942	0.470724	0.783003
0	C	0.148432	0.471506	0.244133
0	C	0.416303	0.953203	0.787056
0	C	0.652178	0.953513	0.240073
0	C	0.966734	0.610102	0.700381
0	C	0.101446	0.61209	0.326406
0	C	0.463548	0.0682904	0.701779
0	C	0.604876	0.069102	0.325223
0	C	0.868103	0.479272	0.882219
0	C	0.200364	0.47904	0.14496
0	C	0.367122	0.966255	0.888334
0	C	0.701391	0.965986	0.138801
0	C	0.802712	0.461515	0.837322
0	C	0.26575	0.461667	0.189896
0	C	0.301402	0.945953	0.845028
0	C	0.767122	0.945888	0.182145
0	C	0.73168	0.438081	0.711256
0	C	0.336669	0.437674	0.316034
0	C	0.228567	0.921151	0.719805
0	C	0.839833	0.920327	0.307446
0	C	0.783722	0.435556	0.193696
0	C	0.284653	0.435233	0.833334
0	C	0.281299	0.950252	0.196147
0	C	0.787058	0.950174	0.83082
0	C	0.71722	0.453588	0.180516
0	C	0.35116	0.453221	0.846543
0	C	0.214529	0.969558	0.181023
0	C	0.85383	0.969575	0.845976
0	C	0.700121	0.449064	0.243735
0	C	0.368295	0.448509	0.783347
0	C	0.196862	0.971901	0.243747
0	C	0.871579	0.971395	0.783313
0	C	0.6385	0.470077	0.235455
0	C	0.429925	0.469658	0.791694
0	C	0.135023	0.993091	0.234482
0	C	0.933439	0.992701	0.792663
0	C	0.594766	0.495209	0.163439
0	C	0.473634	0.494966	0.863724
0	C	0.0916296	0.0114272	0.161968
0	C	0.976736	0.0115735	0.865195
0	C	0.611379	0.497169	0.0998135
0	C	0.456956	0.497305	0.927339
0	C	0.108887	0.00735014	0.0987539
0	C	0.959406	0.00816813	0.928337
0	C	0.673027	0.477349	0.108689
0	C	0.395302	0.47746	0.918395
0	C	0.170698	0.987369	0.108591
0	C	0.897589	0.988106	0.918433
0	H	0.872995	0.67673	0.191814
0	H	0.195484	0.676471	0.835385
0	H	0.371254	0.188393	0.194968
0	H	0.697223	0.188215	0.832178
0	H	0.805348	0.54666	0.973813
0	H	0.263167	0.545013	0.0533341
0	H	0.306594	0.0420865	0.981758
0	H	0.76196	0.0410634	0.0453688
0	H	0.815259	0.220659	0.0301476
0	H	0.252951	0.219263	0.9967
0	H	0.318282	0.715579	0.0393973
0	H	0.75003	0.714661	0.987501
0	H	0.896477	0.219346	0.0625399
0	H	0.171737	0.218772	0.964349
0	H	0.399485	0.720909	0.0735566
0	H	0.668825	0.720581	0.953401
0	H	0.878366	0.256016	0.177329
0	H	0.189902	0.255743	0.849572
0	H	0.377236	0.765835	0.186223
0	H	0.691067	0.76578	0.840733
0	H	0.98665	0.449023	0.177817
0	H	0.081707	0.449384	0.849343
0	H	0.488084	0.962066	0.189479
0	H	0.580293	0.962646	0.837657
0	H	0.987232	0.69125	0.223444
0	H	0.0813115	0.691511	0.803698
0	H	0.485193	0.203625	0.234026
0	H	0.583354	0.203996	0.79309
0	H	0.927135	0.601786	0.447734
0	H	0.141136	0.601618	0.579316
0	H	0.423584	0.107334	0.456121
0	H	0.644717	0.10707	0.570948
0	H	0.923892	0.364771	0.548439
0	H	0.144371	0.364429	0.478643
0	H	0.421721	0.869493	0.557101
0	H	0.646601	0.869067	0.470017
0	H	0.979504	0.870851	0.436606
0	H	0.088734	0.87077	0.590557
0	H	0.479999	0.380041	0.446079
0	H	0.588181	0.379942	0.581022
0	H	0.983978	0.109894	0.337287
0	H	0.0841871	0.11	0.689782
0	H	0.482574	0.619325	0.346105
0	H	0.585483	0.619404	0.680879
0	H	0.986307	0.492316	0.0418739
0	H	0.0821959	0.490599	0.985253
0	H	0.487217	0.988172	0.0460764
0	H	0.581289	0.98771	0.981053
0	H	0.921522	0.626469	0.656628
0	H	0.146551	0.630833	0.370156
0	H	0.418192	0.107537	0.66171
0	H	0.650082	0.11032	0.365203
0	H	0.989456	0.471657	0.692751
0	H	0.0792369	0.473011	0.334546
0	H	0.478527	0.920137	0.68933
0	H	0.590438	0.920469	0.338003
0	H	0.994987	0.745434	0.703806
0	H	0.0726446	0.746295	0.322415
0	H	0.496972	0.187958	0.704859
0	H	0.571006	0.187439	0.321859
0	H	0.733733	0.495852	0.658637
0	H	0.334624	0.496124	0.368565
0	H	0.229104	0.985368	0.667312
0	H	0.839253	0.984776	0.359847
0	H	0.698428	0.519767	0.729066
0	H	0.369995	0.518692	0.29815
0	H	0.195452	0.996607	0.73962
0	H	0.873014	0.995431	0.287648
0	H	0.72308	0.27437	0.709316
0	H	0.345166	0.273874	0.318152
0	H	0.22111	0.756797	0.716135
0	H	0.847234	0.755942	0.311247
0	H	0.735166	0.433267	0.299661
0	H	0.333293	0.432431	0.727407
0	H	0.231487	0.961566	0.300188
0	H	0.836989	0.96054	0.726856
0	H	0.624947	0.469719	0.284921
0	H	0.443504	0.46912	0.742247
0	H	0.121264	0.998406	0.283742
0	H	0.947247	0.99757	0.743439
0	H	0.576228	0.517113	0.0437001
0	H	0.492068	0.517224	0.983425
0	H	0.0739679	0.0227531	0.0422827
0	H	0.994285	0.0239878	0.984846
0	H	0.687033	0.482187	0.0598609
0	H	0.381247	0.482322	0.967187
0	H	0.185133	0.987375	0.0600825
0	H	0.883102	0.988515	0.966901
