#******************************************
#
# CIF file created by Zeo++
# Zeo++ is an open source package to
# analyze microporous materials
#
#*******************************************

_cell_length_a		25.495(0)
_cell_length_b		25.5326(0)
_cell_length_c		8.26557(0)
_cell_angle_alpha		90(0)
_cell_angle_beta		90(0)
_cell_angle_gamma		119.795(0)

_symmetry_space_group_name_H-M		'P1'
_symmetry_Int_Tables_number		1
_symmetry_cell_setting		Monoclinic

loop_
_symmetry_equiv_pos_as_xyz
'+x,+y,+z'

loop_
_atom_site_label
_atom_site_type_symbol
_atom_site_fract_x
_atom_site_fract_y
_atom_site_fract_z
0	Si	0.417738	0.842667	0.57104
0	Si	0.149107	0.569339	0.576109
0	Si	0.421989	0.574566	0.573015
0	Si	0.843302	0.418291	0.105212
0	Si	0.570893	0.150297	0.106215
0	Si	0.575678	0.422986	0.104902
0	Si	0.814729	0.902865	0.573528
0	Si	0.08815	0.905656	0.572726
0	Si	0.0861637	0.177932	0.573127
0	Si	0.90315	0.815027	0.105138
0	Si	0.907671	0.0897285	0.105487
0	Si	0.179111	0.086984	0.105871
0	Si	0.754356	0.24084	0.573067
0	Si	0.750794	0.509732	0.57361
0	Si	0.483974	0.238563	0.573876
0	Si	0.240797	0.753898	0.104902
0	Si	0.510598	0.752082	0.105473
0	Si	0.238238	0.483452	0.106514
0	O	0.493061	0.856652	0.57671
0	O	0.135526	0.630981	0.580782
0	O	0.359699	0.499815	0.578285
0	O	0.856264	0.493244	0.115559
0	O	0.632306	0.136335	0.115585
0	O	0.500943	0.360758	0.115071
0	O	0.802738	0.965702	0.578433
0	O	0.0254231	0.831101	0.577968
0	O	0.161167	0.190396	0.578431
0	O	0.96569	0.802548	0.115455
0	O	0.833116	0.0270137	0.115785
0	O	0.191349	0.161744	0.116531
0	O	0.692541	0.165943	0.578231
0	O	0.825646	0.521929	0.578827
0	O	0.471306	0.300901	0.579085
0	O	0.165872	0.692183	0.115268
0	O	0.523597	0.82702	0.115526
0	O	0.300868	0.471139	0.115901
0	N	0.593023	0.887779	0.575388
0	N	0.104052	0.699616	0.57736
0	N	0.291414	0.399899	0.57662
0	N	0.887435	0.593086	0.122994
0	N	0.70112	0.105081	0.12349
0	N	0.401031	0.292379	0.12317
0	N	0.699271	0.925008	0.578963
0	N	0.066467	0.768466	0.579412
0	N	0.223148	0.293739	0.579571
0	N	0.924795	0.699213	0.118821
0	N	0.770225	0.0677647	0.119249
0	N	0.294804	0.223907	0.119405
0	N	0.771336	0.0345492	0.576385
0	N	0.95671	0.731268	0.57648
0	N	0.261316	0.221839	0.576692
0	N	0.0345191	0.771129	0.122953
0	N	0.733196	0.958212	0.12304
0	N	0.222482	0.26162	0.123739
0	N	0.733698	0.103404	0.579271
0	N	0.888022	0.625212	0.579568
0	N	0.367707	0.259571	0.579694
0	N	0.103398	0.733457	0.118842
0	N	0.627006	0.889428	0.118777
0	N	0.259858	0.36776	0.11949
0	N	0.623913	0.0661199	0.575798
0	N	0.925665	0.552878	0.577028
0	N	0.439383	0.369222	0.576678
0	N	0.0659689	0.623819	0.123119
0	N	0.554407	0.926813	0.122966
0	N	0.369598	0.439678	0.123282
0	N	0.555243	0.960002	0.578198
0	N	0.0319717	0.590059	0.580471
0	N	0.401287	0.437658	0.579383
0	N	0.959735	0.555341	0.118984
0	N	0.591444	0.0329404	0.118874
0	N	0.438445	0.402014	0.118895
0	N	0.66274	0.996157	0.575534
0	N	0.995471	0.661226	0.576511
0	N	0.3307	0.330309	0.576293
0	N	0.995984	0.662679	0.123962
0	N	0.662872	0.996686	0.1241
0	N	0.331033	0.331227	0.124344
0	C	0.547215	0.901958	0.57643
0	C	0.0900295	0.639835	0.579191
0	C	0.351129	0.445669	0.57779
0	C	0.901598	0.547323	0.1195
0	C	0.641225	0.0909653	0.119692
0	C	0.4467	0.352067	0.119413
0	C	0.651238	0.93373	0.57676
0	C	0.0579096	0.711893	0.577854
0	C	0.2796	0.341761	0.577632
0	C	0.933473	0.651219	0.122185
0	C	0.713535	0.0590904	0.122547
0	C	0.342748	0.280365	0.122561
0	C	0.757354	0.974769	0.577598
0	C	0.0165204	0.776832	0.577626
0	C	0.21532	0.235755	0.577914
0	C	0.974671	0.757205	0.11941
0	C	0.778736	0.0179777	0.119693
0	C	0.236649	0.215859	0.1202
0	C	0.725187	0.0468375	0.577208
0	C	0.944596	0.673036	0.577621
0	C	0.319465	0.267972	0.577676
0	C	0.0467784	0.725021	0.12219
0	C	0.674832	0.945973	0.122205
0	C	0.268517	0.319754	0.122782
0	C	0.683722	0.111713	0.577444
0	C	0.879903	0.567131	0.578114
0	C	0.425654	0.30953	0.578139
0	C	0.111643	0.683516	0.119438
0	C	0.568788	0.881192	0.119429
0	C	0.309756	0.425733	0.119896
0	C	0.611815	0.00789127	0.576649
0	C	0.983917	0.598783	0.578078
0	C	0.393031	0.381189	0.577563
0	C	0.00768258	0.611792	0.122275
0	C	0.600288	0.985027	0.122227
0	C	0.381834	0.393556	0.122413
0	C	0.798011	0.250499	0.759727
0	C	0.741318	0.543774	0.760403
0	C	0.450019	0.195297	0.760758
0	C	0.249598	0.801033	0.283086
0	C	0.548958	0.742851	0.283257
0	C	0.19165	0.444915	0.285173
0	H	0.816229	0.219099	0.75713
0	H	0.772262	0.593265	0.756831
0	H	0.400374	0.17647	0.756626
0	H	0.219244	0.820335	0.272282
0	H	0.598443	0.773179	0.272713
0	H	0.172851	0.395526	0.273831
0	H	0.769407	0.238985	0.868843
0	H	0.753623	0.527203	0.869303
0	H	0.466206	0.224245	0.869361
0	H	0.235625	0.773607	0.394999
0	H	0.535342	0.756544	0.395539
0	H	0.2193	0.45835	0.396772
0	H	0.836156	0.296913	0.774816
0	H	0.694673	0.535176	0.776944
0	H	0.45917	0.157647	0.778317
0	H	0.296423	0.838397	0.300421
0	H	0.539828	0.696053	0.299662
0	H	0.153815	0.453863	0.30362
0	C	0.795673	0.247395	0.384395
0	C	0.744821	0.544924	0.385163
0	C	0.44872	0.197725	0.385351
0	C	0.247354	0.789908	0.906384
0	C	0.539867	0.745184	0.906829
0	C	0.20197	0.453609	0.908586
0	H	0.765501	0.233369	0.277711
0	H	0.759169	0.529065	0.278461
0	H	0.464457	0.227892	0.278828
0	H	0.234327	0.757286	0.805672
0	H	0.519917	0.757776	0.805934
0	H	0.234419	0.472775	0.807409
0	H	0.814226	0.216274	0.38876
0	H	0.775965	0.594392	0.390627
0	H	0.399175	0.179486	0.391048
0	H	0.215911	0.80805	0.90092
0	H	0.589258	0.776688	0.900657
0	H	0.183929	0.404174	0.904251
0	H	0.833422	0.293648	0.362412
0	H	0.698542	0.536739	0.362351
0	H	0.457071	0.159774	0.362043
0	H	0.293462	0.827352	0.881078
0	H	0.531671	0.699154	0.882664
0	H	0.164274	0.462176	0.883053
0	C	0.716846	0.287275	0.572174
0	C	0.704166	0.42615	0.572296
0	C	0.567705	0.275487	0.572471
0	C	0.287375	0.7167	0.119615
0	C	0.42704	0.705821	0.120736
0	C	0.274772	0.566883	0.120777
0	H	0.688695	0.279243	0.680387
0	H	0.712187	0.405981	0.680464
0	H	0.587792	0.303703	0.680426
0	H	0.276783	0.689172	0.230175
0	H	0.410166	0.716525	0.23143
0	H	0.302483	0.583954	0.231121
0	H	0.687981	0.278098	0.464848
0	H	0.713402	0.406491	0.464922
0	H	0.587224	0.304179	0.464933
0	H	0.28067	0.687305	0.0152404
0	H	0.404199	0.712496	0.0164788
0	H	0.304019	0.58949	0.016094
0	H	0.752	0.335482	0.57019
0	H	0.655877	0.413344	0.570208
0	H	0.580823	0.240226	0.570713
0	H	0.335605	0.751838	0.124441
0	H	0.414198	0.657634	0.125689
0	H	0.239295	0.579719	0.125844
0	C	0.78024	0.859546	0.760035
0	C	0.131702	0.914226	0.758864
0	C	0.0768755	0.212272	0.759593
0	C	0.85607	0.776544	0.2832
0	C	0.916064	0.136787	0.283585
0	C	0.217792	0.0781616	0.283542
0	H	0.730767	0.841886	0.756239
0	H	0.147835	0.881093	0.756561
0	H	0.108836	0.261593	0.756644
0	H	0.837376	0.727161	0.272102
0	H	0.884869	0.155113	0.273051
0	H	0.267127	0.109658	0.273416
0	H	0.797053	0.888065	0.869223
0	H	0.103755	0.904325	0.868761
0	H	0.0880676	0.195013	0.869032
0	H	0.883407	0.790059	0.395314
0	H	0.902729	0.109512	0.395837
0	H	0.203513	0.0909793	0.39618
0	H	0.788151	0.821063	0.775984
0	H	0.171274	0.959744	0.771891
0	H	0.0306931	0.204952	0.774319
0	H	0.81818	0.785479	0.300352
0	H	0.962556	0.174741	0.300174
0	H	0.209984	0.0318685	0.298912
0	C	0.898423	0.939174	0.572754
0	C	0.0514888	0.952874	0.572557
0	C	0.0396775	0.0943252	0.572426
0	C	0.939609	0.898462	0.119563
0	C	0.955202	0.0535441	0.119631
0	C	0.0955876	0.0401847	0.120587
0	H	0.918589	0.967352	0.680763
0	H	0.0233495	0.944911	0.680767
0	H	0.0478367	0.0742935	0.680654
0	H	0.967078	0.915475	0.230241
0	H	0.94509	0.0262014	0.230421
0	H	0.078543	0.0506595	0.231321
0	H	0.918197	0.967787	0.465238
0	H	0.02267	0.944014	0.465279
0	H	0.0489509	0.0746416	0.465107
0	H	0.96904	0.921151	0.0152812
0	H	0.948657	0.0241416	0.0155255
0	H	0.07272	0.0468712	0.0163934
0	H	0.911165	0.903638	0.571318
0	H	0.0868889	0.000957321	0.57091
0	H	0.991361	0.0813617	0.570447
0	H	0.904112	0.911246	0.124044
0	H	0.00326113	0.0890845	0.123862
0	H	0.0829421	0.992069	0.125131
0	C	0.779537	0.861883	0.385048
0	C	0.129135	0.911586	0.383842
0	C	0.0798648	0.212809	0.384399
0	C	0.867113	0.785209	0.906891
0	C	0.913456	0.125689	0.907298
0	C	0.208982	0.0810471	0.907242
0	H	0.795444	0.891968	0.278308
0	H	0.0990558	0.898336	0.277081
0	H	0.0939206	0.196642	0.277738
0	H	0.899519	0.804764	0.805851
0	H	0.901261	0.0934363	0.806055
0	H	0.188546	0.0929774	0.806155
0	H	0.730016	0.8439	0.390495
0	H	0.146355	0.879332	0.387954
0	H	0.111298	0.262231	0.389232
0	H	0.849584	0.735874	0.902118
0	H	0.881088	0.14272	0.902199
0	H	0.258196	0.113521	0.901394
0	H	0.787731	0.823834	0.362344
0	H	0.16766	0.957329	0.362273
0	H	0.0336968	0.204852	0.36206
0	H	0.829142	0.793296	0.881833
0	H	0.959126	0.16392	0.882796
0	H	0.202059	0.0355485	0.88325
0	C	0.410923	0.877251	0.382442
0	C	0.114298	0.528233	0.387503
0	C	0.463093	0.580697	0.384256
0	C	0.872671	0.411667	0.90645
0	C	0.534473	0.121106	0.908079
0	C	0.581895	0.45899	0.906549
0	H	0.425435	0.861484	0.275846
0	H	0.130035	0.558364	0.281013
0	H	0.432833	0.566543	0.277723
0	H	0.852938	0.424654	0.805866
0	H	0.567002	0.140166	0.807128
0	H	0.568816	0.426433	0.805814
0	H	0.441596	0.926796	0.387201
0	H	0.0646846	0.509618	0.392577
0	H	0.481443	0.549401	0.389069
0	H	0.922083	0.443055	0.900773
0	H	0.515854	0.0715775	0.902928
0	H	0.550371	0.477037	0.901687
0	H	0.364409	0.868426	0.360024
0	H	0.123104	0.490537	0.364833
0	H	0.500958	0.626831	0.36155
0	H	0.864317	0.365635	0.881266
0	H	0.49718	0.130306	0.883007
0	H	0.627942	0.496512	0.88096
0	C	0.37236	0.758978	0.569695
0	C	0.232898	0.606923	0.574789
0	C	0.384771	0.621265	0.572276
0	C	0.75974	0.372121	0.120295
0	C	0.608563	0.233822	0.120711
0	C	0.622665	0.386228	0.119465
0	H	0.380976	0.73917	0.677671
0	H	0.252811	0.63509	0.68294
0	H	0.356647	0.613275	0.680532
0	H	0.742888	0.382867	0.230951
0	H	0.636372	0.250548	0.230943
0	H	0.612257	0.358776	0.230131
0	H	0.381971	0.739721	0.462135
0	H	0.252241	0.635757	0.467447
0	H	0.355876	0.61213	0.465032
0	H	0.736985	0.378928	0.0160311
0	H	0.637874	0.256161	0.0159572
0	H	0.616033	0.356821	0.0151924
0	H	0.323842	0.745315	0.568073
0	H	0.246421	0.571968	0.572659
0	H	0.419998	0.669415	0.570245
0	H	0.746759	0.323905	0.12515
0	H	0.573616	0.247341	0.126043
0	H	0.670831	0.421539	0.124068
0	C	0.407293	0.876009	0.757933
0	C	0.11541	0.52594	0.762959
0	C	0.465513	0.583736	0.759625
0	C	0.881698	0.409192	0.2831
0	C	0.523989	0.112304	0.284851
0	C	0.583989	0.469913	0.283201
0	H	0.437862	0.925561	0.755278
0	H	0.0657431	0.506876	0.759194
0	H	0.483413	0.552065	0.756427
0	H	0.931197	0.439369	0.272117
0	H	0.504716	0.0628255	0.274185
0	H	0.55355	0.489082	0.271912
0	H	0.419567	0.859393	0.866761
0	H	0.131588	0.554886	0.871605
0	H	0.436914	0.57219	0.868751
0	H	0.868296	0.423237	0.395182
0	H	0.551596	0.125703	0.396522
0	H	0.569844	0.442392	0.394956
0	H	0.360463	0.866907	0.773716
0	H	0.12486	0.488468	0.78009
0	H	0.503874	0.629987	0.775202
0	H	0.872438	0.362387	0.300355
0	H	0.48648	0.121792	0.302613
0	H	0.630725	0.507341	0.301202
