#******************************************
#
# CIF file created by Zeo++
# Zeo++ is an open source package to
# analyze microporous materials
#
#*******************************************

_cell_length_a		18.0788(0)
_cell_length_b		18.0011(0)
_cell_length_c		11.0108(0)
_cell_angle_alpha		90(0)
_cell_angle_beta		90(0)
_cell_angle_gamma		119.572(0)

_symmetry_space_group_name_H-M		'P1'
_symmetry_Int_Tables_number		1
_symmetry_cell_setting		Monoclinic

loop_
_symmetry_equiv_pos_as_xyz
'+x,+y,+z'

loop_
_atom_site_label
_atom_site_type_symbol
_atom_site_fract_x
_atom_site_fract_y
_atom_site_fract_z
0	C	0.411831	0.959262	0.239962
0	C	0.0290331	0.450639	0.916448
0	C	0.538698	0.58151	0.576963
0	C	0.576796	0.0357093	0.748455
0	C	0.956232	0.543071	0.41072
0	C	0.448221	0.415182	0.0753695
0	C	0.378912	0.0202609	0.262479
0	C	0.967305	0.357443	0.938022
0	C	0.631903	0.613526	0.598163
0	C	0.607611	0.972872	0.770129
0	C	0.0169547	0.636555	0.431701
0	C	0.355106	0.382876	0.0975636
0	O	0.338615	0.0244084	0.148161
0	O	0.963817	0.312633	0.824138
0	O	0.675662	0.654765	0.484153
0	O	0.649418	0.96958	0.656912
0	O	0.0200386	0.680303	0.31701
0	O	0.310934	0.3423	0.983492
0	C	0.252396	0.994971	0.14668
0	C	0.995628	0.257224	0.82337
0	C	0.733262	0.740841	0.485363
0	C	0.735619	0.999144	0.657962
0	C	0.989559	0.736841	0.315438
0	C	0.255219	0.255734	0.982701
0	O	0.207072	0.955233	0.231299
0	O	0.0362401	0.25278	0.908184
0	O	0.739562	0.785526	0.571783
0	O	0.779745	0.0379688	0.744135
0	O	0.950355	0.743151	0.400617
0	O	0.251032	0.210332	0.0669988
0	C	0.228978	0.0198284	0.0306855
0	C	0.972019	0.208247	0.70808
0	C	0.781535	0.765482	0.369786
0	C	0.760808	0.975513	0.542475
0	C	0.012531	0.784064	0.198671
0	C	0.205955	0.231932	0.867973
0	C	0.447969	0.114548	0.282252
0	C	0.873363	0.33404	0.955597
0	C	0.657139	0.543682	0.615696
0	C	0.537162	0.878745	0.786631
0	C	0.111054	0.661009	0.450238
0	C	0.329564	0.452355	0.116965
0	O	0.400267	0.154708	0.327458
0	O	0.833124	0.246808	0.00219526
0	O	0.744212	0.590896	0.661146
0	O	0.583569	0.837574	0.832987
0	O	0.150974	0.748605	0.495416
0	O	0.242771	0.404543	0.163388
0	C	0.406492	0.22475	0.265454
0	C	0.765972	0.182966	0.937022
0	C	0.807763	0.586495	0.595973
0	C	0.58071	0.770312	0.767212
0	C	0.219193	0.811767	0.431066
0	C	0.17861	0.409011	0.100175
0	O	0.448388	0.250718	0.173636
0	O	0.741342	0.19893	0.843615
0	O	0.79192	0.546515	0.502114
0	O	0.540402	0.745806	0.67389
0	O	0.243357	0.795295	0.337647
0	O	0.193811	0.450367	0.00761941
0	C	0.355363	0.255743	0.330231
0	C	0.73576	0.100984	0.00129197
0	C	0.88943	0.637105	0.660286
0	C	0.633229	0.740556	0.830924
0	C	0.251117	0.893965	0.495535
0	C	0.097132	0.356787	0.164054
0	C	0.511342	0.128852	0.385583
0	C	0.858528	0.384982	0.0561855
0	C	0.608273	0.479112	0.717724
0	C	0.472171	0.864399	0.887445
0	C	0.126046	0.611583	0.55287
0	C	0.378798	0.516868	0.218931
0	O	0.567611	0.22162	0.382074
0	O	0.766456	0.350915	0.0504714
0	O	0.644727	0.422415	0.713487
0	O	0.414336	0.772094	0.882254
0	O	0.218395	0.647192	0.548409
0	O	0.342212	0.573536	0.21535
0	C	0.614877	0.260614	0.485476
0	C	0.726892	0.359636	0.153304
0	C	0.636397	0.374272	0.816467
0	C	0.366649	0.733171	0.985461
0	C	0.258015	0.639613	0.651931
0	C	0.351364	0.621975	0.318244
0	O	0.609663	0.217211	0.572864
0	O	0.769494	0.397323	0.241067
0	O	0.597128	0.378251	0.903155
0	O	0.372068	0.776466	0.0730403
0	O	0.215336	0.601997	0.739655
0	O	0.39015	0.617172	0.405002
0	C	0.66456	0.353478	0.465877
0	C	0.634502	0.317713	0.132618
0	C	0.68091	0.325351	0.797304
0	C	0.316094	0.640397	0.96526
0	C	0.350548	0.682567	0.631997
0	C	0.308297	0.672256	0.299066
0	C	0.564485	0.0850186	0.369244
0	C	0.903443	0.481605	0.0377526
0	C	0.512097	0.426795	0.700654
0	C	0.421105	0.910365	0.869322
0	C	0.0829027	0.514939	0.536424
0	C	0.474814	0.569805	0.200736
0	C	0.62012	0.113218	0.256956
0	C	0.879947	0.509754	0.921318
0	C	0.484052	0.373765	0.585753
0	C	0.369636	0.887176	0.75317
0	C	0.109445	0.486642	0.422905
0	C	0.501285	0.623615	0.086439
0	P	0.483432	0.967103	0.368262
0	P	0.0199858	0.513883	0.0449779
0	P	0.477524	0.510197	0.706465
0	P	0.505111	0.0270077	0.876942
0	P	0.965565	0.479802	0.538927
0	P	0.510746	0.48738	0.203579
0	C	0.536717	0.907531	0.321424
0	C	0.0845181	0.626979	0.00535757
0	C	0.364586	0.460796	0.667815
0	C	0.457532	0.0932104	0.838858
0	C	0.904719	0.367063	0.495038
0	C	0.622866	0.53838	0.159236
0	C	0.550368	0.859829	0.409384
0	C	0.13048	0.684418	0.0976826
0	C	0.308005	0.449983	0.761212
0	C	0.445651	0.138242	0.932853
0	C	0.857621	0.30804	0.585155
0	C	0.682239	0.549549	0.248441
0	C	0.589183	0.812093	0.375535
0	C	0.18229	0.770996	0.069022
0	C	0.221247	0.414462	0.734702
0	C	0.410671	0.190701	0.906563
0	C	0.807647	0.221663	0.554109
0	C	0.76836	0.586868	0.216802
0	C	0.61344	0.812454	0.254954
0	C	0.187357	0.798694	0.949272
0	C	0.192469	0.390232	0.615831
0	C	0.388377	0.197568	0.787363
0	C	0.805488	0.195671	0.433986
0	C	0.793677	0.612375	0.097064
0	C	0.599335	0.860529	0.167449
0	C	0.140757	0.74042	0.857375
0	C	0.249924	0.401348	0.522828
0	C	0.400868	0.152294	0.693665
0	C	0.853318	0.255469	0.344346
0	C	0.733454	0.600807	0.0082427
0	C	0.560699	0.908406	0.20064
0	C	0.0891176	0.653914	0.885313
0	C	0.336662	0.437117	0.548526
0	C	0.43587	0.0999436	0.7192
0	C	0.903293	0.341807	0.374778
0	C	0.647371	0.563369	0.0391539
0	O	0.440063	0.942851	0.491882
0	O	0.0383768	0.490031	0.169917
0	O	0.500568	0.552515	0.831267
0	O	0.546836	0.0441913	0.00201839
0	O	0.943402	0.500281	0.663545
0	O	0.490234	0.444903	0.328173
0	H	0.446886	0.973171	0.151673
0	H	0.0163585	0.472604	0.827792
0	H	0.516996	0.546498	0.488775
0	H	0.543026	0.0237434	0.659586
0	H	0.969352	0.521174	0.322274
0	H	0.469399	0.449886	0.986873
0	H	0.358436	0.891874	0.231134
0	H	0.0959441	0.462748	0.909122
0	H	0.525034	0.635696	0.569045
0	H	0.63124	0.10273	0.741711
0	H	0.889029	0.530103	0.403005
0	H	0.462103	0.361156	0.0676313
0	H	0.329321	0.998539	0.336108
0	H	0.987789	0.328605	0.0125141
0	H	0.659841	0.662624	0.672734
0	H	0.65581	0.992535	0.845511
0	H	0.995726	0.665303	0.505397
0	H	0.327519	0.333248	0.171483
0	H	0.1667	0.970389	0.997403
0	H	0.022141	0.195292	0.676431
0	H	0.79453	0.828755	0.338575
0	H	0.823292	0.0255974	0.510847
0	H	0.962598	0.797368	0.167139
0	H	0.192472	0.168856	0.835216
0	H	0.225072	0.0792333	0.0442529
0	H	0.913326	0.145363	0.72182
0	H	0.844209	0.768564	0.382849
0	H	0.76515	0.916318	0.555758
0	H	0.0718201	0.846699	0.21027
0	H	0.143562	0.22905	0.883015
0	H	0.276864	0.0350533	0.958773
0	H	0.956695	0.240254	0.634772
0	H	0.749346	0.718577	0.296487
0	H	0.713802	0.960552	0.469324
0	H	0.0265956	0.750516	0.126188
0	H	0.237646	0.279299	0.795005
0	H	0.480723	0.145388	0.195043
0	H	0.843164	0.335639	0.86767
0	H	0.655494	0.51151	0.528005
0	H	0.50561	0.848928	0.69861
0	H	0.141488	0.658782	0.362695
0	H	0.330443	0.484622	0.0295257
0	H	0.397993	0.322163	0.364314
0	H	0.669286	0.0772042	0.0348595
0	H	0.912109	0.593599	0.696221
0	H	0.591668	0.674208	0.865966
0	H	0.317112	0.915798	0.529545
0	H	0.0730057	0.398888	0.20073
0	H	0.309346	0.259252	0.26669
0	H	0.733175	0.0517151	0.937686
0	H	0.938848	0.682045	0.596
0	H	0.679169	0.737572	0.76658
0	H	0.255625	0.944009	0.431745
0	H	0.0482721	0.311707	0.0992162
0	H	0.319671	0.215758	0.407722
0	H	0.775334	0.104919	0.0792378
0	H	0.885975	0.674568	0.736442
0	H	0.669219	0.781029	0.907879
0	H	0.21147	0.89108	0.572785
0	H	0.101244	0.319181	0.23948
0	H	0.478452	0.113963	0.476127
0	H	0.872172	0.367418	0.148155
0	H	0.625674	0.511327	0.80895
0	H	0.503367	0.877976	0.979249
0	H	0.111376	0.629607	0.643731
0	H	0.361916	0.484645	0.310067
0	H	0.72651	0.372807	0.420468
0	H	0.615237	0.362068	0.091654
0	H	0.63984	0.263353	0.750865
0	H	0.253194	0.621862	0.923731
0	H	0.370408	0.64026	0.585609
0	H	0.350728	0.734742	0.254698
0	H	0.632508	0.378133	0.406297
0	H	0.610816	0.263693	0.0684638
0	H	0.737729	0.358483	0.73924
0	H	0.346112	0.615896	0.901632
0	H	0.37433	0.739377	0.573111
0	H	0.252517	0.640917	0.238658
0	H	0.6802	0.389784	0.552273
0	H	0.597711	0.293726	0.218023
0	H	0.700978	0.309482	0.884181
0	H	0.302859	0.603641	0.0509189
0	H	0.386735	0.702841	0.718341
0	H	0.287151	0.687311	0.385607
0	H	0.606114	0.0990687	0.451723
0	H	0.887545	0.510432	0.11731
0	H	0.484756	0.383258	0.781443
0	H	0.376986	0.894839	0.949121
0	H	0.098226	0.487532	0.618313
0	H	0.502641	0.613057	0.281752
0	H	0.661365	0.0846817	0.250867
0	H	0.90968	0.579419	0.914001
0	H	0.414735	0.333393	0.579952
0	H	0.330309	0.917777	0.746006
0	H	0.0814019	0.417055	0.417425
0	H	0.5704	0.665075	0.0798747
0	H	0.662196	0.183038	0.258261
0	H	0.81065	0.484219	0.917386
0	H	0.510994	0.330617	0.582863
0	H	0.326102	0.81765	0.749475
0	H	0.17905	0.513888	0.421601
0	H	0.473245	0.665873	0.0853079
0	H	0.584156	0.0991909	0.17065
0	H	0.895972	0.486635	0.837579
0	H	0.505634	0.411678	0.500933
0	H	0.40834	0.902653	0.669292
0	H	0.0937628	0.508111	0.337271
0	H	0.479817	0.58626	0.0012078
0	H	0.531842	0.858427	0.504759
0	H	0.127022	0.664158	0.192746
0	H	0.329037	0.467975	0.855677
0	H	0.462189	0.133662	0.0277611
0	H	0.858592	0.32701	0.680235
0	H	0.66387	0.530328	0.343273
0	H	0.598974	0.773967	0.444139
0	H	0.219218	0.816058	0.141134
0	H	0.177089	0.407267	0.807701
0	H	0.402237	0.226725	0.980242
0	H	0.769855	0.175677	0.624527
0	H	0.8146	0.594442	0.286643
0	H	0.643017	0.774766	0.228825
0	H	0.228257	0.865888	0.92694
0	H	0.125067	0.363034	0.595067
0	H	0.361504	0.238649	0.766963
0	H	0.765946	0.128615	0.409813
0	H	0.860571	0.640992	0.072332
0	H	0.617399	0.859883	0.0730579
0	H	0.145283	0.762065	0.763806
0	H	0.227312	0.382984	0.430011
0	H	0.384161	0.158466	0.600581
0	H	0.850903	0.235017	0.250474
0	H	0.753516	0.620206	0.914701
0	H	0.549771	0.945362	0.130133
0	H	0.0537368	0.609018	0.811816
0	H	0.38081	0.446086	0.474067
0	H	0.446091	0.065938	0.644014
0	H	0.940062	0.387922	0.302923
0	H	0.600899	0.55423	0.96789
