#******************************************
#
# CIF file created by Zeo++
# Zeo++ is an open source package to
# analyze microporous materials
#
#*******************************************

_cell_length_a		21.9836(0)
_cell_length_b		21.9854(0)
_cell_length_c		33.4346(0)
_cell_angle_alpha		90(0)
_cell_angle_beta		90(0)
_cell_angle_gamma		119.518(0)

_symmetry_space_group_name_H-M		'P1'
_symmetry_Int_Tables_number		1
_symmetry_cell_setting		Monoclinic

loop_
_symmetry_equiv_pos_as_xyz
'+x,+y,+z'

loop_
_atom_site_label
_atom_site_type_symbol
_atom_site_fract_x
_atom_site_fract_y
_atom_site_fract_z
0	C	0.757364	0.981647	0.0529709
0	C	0.98585	0.767305	0.0539973
0	C	0.198222	0.205138	0.0518918
0	C	0.203792	0.98436	0.910134
0	C	0.975973	0.19949	0.908841
0	C	0.763684	0.761318	0.90937
0	C	0.424374	0.315214	0.379464
0	C	0.651785	0.0985746	0.37935
0	C	0.866212	0.540628	0.378593
0	C	0.867882	0.321659	0.260881
0	C	0.642663	0.537989	0.260508
0	C	0.427357	0.096641	0.261851
0	C	0.0939228	0.644772	0.701438
0	C	0.319035	0.428171	0.701936
0	C	0.534529	0.869904	0.700609
0	C	0.537339	0.651208	0.582891
0	C	0.309943	0.867693	0.583091
0	C	0.0956492	0.425874	0.583817
0	C	0.75269	0.0442	0.0446107
0	C	0.923761	0.700782	0.0453501
0	C	0.265276	0.209479	0.0436717
0	C	0.208478	0.921788	0.918414
0	C	0.0381132	0.265983	0.917465
0	C	0.696682	0.756956	0.917792
0	C	0.419227	0.377655	0.371566
0	C	0.590189	0.0312964	0.371352
0	C	0.933583	0.545238	0.371063
0	C	0.871661	0.258671	0.269385
0	C	0.704871	0.604677	0.26873
0	C	0.360499	0.0928448	0.269882
0	C	0.0901578	0.707792	0.693011
0	C	0.256844	0.361445	0.693767
0	C	0.601389	0.87372	0.692548
0	C	0.542485	0.588773	0.590812
0	C	0.371545	0.934955	0.59112
0	C	0.0283063	0.421309	0.591381
0	C	0.694682	0.0403704	0.0176232
0	C	0.928716	0.647661	0.0179223
0	C	0.318452	0.266915	0.0163512
0	C	0.266283	0.925432	0.945517
0	C	0.0333723	0.319184	0.944929
0	C	0.643624	0.699278	0.945044
0	C	0.36241	0.375322	0.344116
0	C	0.593572	0.977539	0.343739
0	C	0.987805	0.601605	0.343632
0	C	0.927521	0.260429	0.297449
0	C	0.701963	0.658485	0.296553
0	C	0.306682	0.0371302	0.297778
0	C	0.0343484	0.70614	0.664955
0	C	0.259772	0.307547	0.666032
0	C	0.655157	0.929481	0.664653
0	C	0.599343	0.591132	0.618245
0	C	0.368191	0.988658	0.618798
0	C	0.974105	0.364981	0.618839
0	C	0.699419	0.113999	0.0213461
0	C	0.855818	0.578956	0.0215338
0	C	0.387824	0.263222	0.0210516
0	C	0.262056	0.852089	0.9413
0	C	0.106082	0.388015	0.940888
0	C	0.57433	0.703232	0.940793
0	C	0.36129	0.445024	0.353325
0	C	0.525568	0.90666	0.353808
0	C	0.0582618	0.602402	0.353533
0	C	0.928343	0.190518	0.288401
0	C	0.771079	0.728866	0.287271
0	C	0.236167	0.036376	0.288161
0	C	0.0336083	0.776092	0.673997
0	C	0.190388	0.23729	0.675096
0	C	0.725647	0.930074	0.6741
0	C	0.600543	0.521491	0.608962
0	C	0.435944	0.0596341	0.608518
0	C	0.903615	0.364063	0.608861
0	C	0.772694	0.161116	0.0414652
0	C	0.807598	0.604343	0.0417865
0	C	0.362915	0.190166	0.0414219
0	C	0.188795	0.804963	0.921173
0	C	0.15425	0.362552	0.920643
0	C	0.599136	0.77638	0.92057
0	C	0.436785	0.493778	0.370445
0	C	0.47546	0.932155	0.371381
0	C	0.0321217	0.527244	0.371357
0	C	0.852869	0.142161	0.271088
0	C	0.820485	0.702337	0.269911
0	C	0.262421	0.111583	0.270368
0	C	0.108987	0.824326	0.69147
0	C	0.141105	0.263986	0.692431
0	C	0.699329	0.854792	0.691795
0	C	0.524995	0.472677	0.591943
0	C	0.486144	0.034296	0.590888
0	C	0.929702	0.439207	0.591026
0	C	0.795659	0.110164	0.0574329
0	C	0.857556	0.677605	0.0580707
0	C	0.289045	0.166942	0.0570154
0	C	0.165766	0.855946	0.905328
0	C	0.104234	0.289124	0.904601
0	C	0.672904	0.799675	0.904792
0	C	0.461116	0.443245	0.385422
0	C	0.524632	0.00711868	0.385645
0	C	0.957291	0.503279	0.385618
0	C	0.829415	0.193139	0.255581
0	C	0.770538	0.628091	0.254819
0	C	0.336815	0.134926	0.255516
0	C	0.132403	0.773271	0.706897
0	C	0.191153	0.338147	0.707606
0	C	0.625057	0.831565	0.706825
0	C	0.500595	0.523164	0.576984
0	C	0.437062	0.959235	0.576743
0	C	0.00456537	0.463226	0.576808
0	C	0.855861	0.136003	0.0838741
0	C	0.830604	0.71129	0.0845271
0	C	0.255566	0.106947	0.0835979
0	C	0.105827	0.830216	0.878698
0	C	0.131028	0.255245	0.878183
0	C	0.706331	0.859879	0.878356
0	C	0.521771	0.469031	0.411438
0	C	0.498107	0.0417894	0.411608
0	C	0.922325	0.442989	0.411837
0	C	0.769174	0.167547	0.229262
0	C	0.796892	0.593625	0.228579
0	C	0.371383	0.194927	0.229075
0	C	0.192639	0.79876	0.733222
0	C	0.164847	0.372694	0.733816
0	C	0.59052	0.771548	0.733259
0	C	0.439931	0.497328	0.55098
0	C	0.463613	0.924605	0.550765
0	C	0.0395066	0.523488	0.550567
0	C	0.856445	0.110016	0.121199
0	C	0.856113	0.737928	0.121847
0	C	0.228707	0.106435	0.120821
0	C	0.105535	0.856362	0.841378
0	C	0.105493	0.228561	0.84088
0	C	0.732961	0.860543	0.841038
0	C	0.52516	0.440819	0.4475
0	C	0.525777	0.0725135	0.447852
0	C	0.890427	0.440524	0.447642
0	C	0.766001	0.195529	0.193082
0	C	0.769169	0.563036	0.192326
0	C	0.40182	0.196925	0.192835
0	C	0.195809	0.770622	0.769347
0	C	0.192612	0.40335	0.770055
0	C	0.559909	0.769468	0.769453
0	C	0.436529	0.525425	0.51488
0	C	0.435981	0.893926	0.514513
0	C	0.0712332	0.525856	0.514715
0	C	0.80164	0.0520462	0.143998
0	C	0.914788	0.742017	0.144745
0	C	0.22447	0.161324	0.143371
0	C	0.160426	0.914549	0.818748
0	C	0.0468825	0.224561	0.817958
0	C	0.736844	0.805648	0.818286
0	C	0.472297	0.380672	0.469807
0	C	0.586115	0.079137	0.470088
0	C	0.88308	0.494372	0.469351
0	C	0.818538	0.256431	0.171099
0	C	0.70822	0.555344	0.1703
0	C	0.408805	0.143071	0.17089
0	C	0.143288	0.709572	0.791235
0	C	0.253517	0.410973	0.792102
0	C	0.552855	0.823273	0.79141
0	C	0.489369	0.585506	0.492519
0	C	0.375613	0.887251	0.492291
0	C	0.0784481	0.471932	0.493008
0	H	0.782589	0.0706922	0.169232
0	H	0.896899	0.704499	0.169924
0	H	0.261568	0.180422	0.168764
0	H	0.179777	0.896147	0.793543
0	H	0.0648267	0.261832	0.79266
0	H	0.699685	0.786876	0.792923
0	H	0.451762	0.396936	0.495413
0	H	0.570215	0.0420827	0.495446
0	H	0.919737	0.515387	0.494873
0	H	0.834538	0.241636	0.143044
0	H	0.722958	0.58567	0.142163
0	H	0.376344	0.126253	0.143529
0	H	0.127345	0.724164	0.81938
0	H	0.238704	0.380552	0.820205
0	H	0.585449	0.840215	0.81872
0	H	0.509968	0.569168	0.466978
0	H	0.39146	0.924134	0.466851
0	H	0.041838	0.451018	0.467463
0	H	0.819073	0.0170247	0.156963
0	H	0.948587	0.794202	0.157777
0	H	0.172107	0.144057	0.156064
0	H	0.142918	0.949492	0.805754
0	H	0.0128792	0.172297	0.805079
0	H	0.789137	0.822761	0.805532
0	H	0.492004	0.347033	0.481999
0	H	0.619195	0.131817	0.482697
0	H	0.830166	0.475589	0.481556
0	H	0.800173	0.293254	0.162744
0	H	0.671429	0.500621	0.162096
0	H	0.463002	0.160466	0.161362
0	H	0.161621	0.672648	0.799406
0	H	0.290306	0.465664	0.800364
0	H	0.498683	0.805788	0.801016
0	H	0.469592	0.619014	0.480217
0	H	0.34246	0.834499	0.479791
0	H	0.131366	0.490613	0.480831
0	H	0.755039	0.0186397	0.125779
0	H	0.949253	0.729679	0.1266
0	H	0.237343	0.207925	0.125054
0	H	0.206832	0.947978	0.837104
0	H	0.0126092	0.237252	0.836043
0	H	0.723779	0.758847	0.836463
0	H	0.4261	0.346494	0.45152
0	H	0.62067	0.0675182	0.451498
0	H	0.894875	0.540143	0.450537
0	H	0.867292	0.286938	0.188275
0	H	0.67768	0.574066	0.187392
0	H	0.391974	0.0949876	0.188603
0	H	0.0945059	0.679228	0.774063
0	H	0.284071	0.392278	0.775002
0	H	0.56951	0.871308	0.773683
0	H	0.535525	0.619829	0.510799
0	H	0.341139	0.899027	0.510855
0	H	0.0665126	0.426113	0.511814
0	C	0.922072	0.196578	0.0733277
0	C	0.769145	0.716133	0.0738453
0	C	0.251326	0.040845	0.0732781
0	C	0.0396077	0.769457	0.889013
0	C	0.192359	0.250209	0.888932
0	C	0.710768	0.925978	0.888911
0	C	0.586453	0.531559	0.401059
0	C	0.435763	0.0449756	0.400983
0	C	0.92018	0.377688	0.402017
0	C	0.704549	0.104811	0.239474
0	C	0.859731	0.591048	0.238883
0	C	0.374395	0.260517	0.239252
0	C	0.257271	0.861534	0.723068
0	C	0.102038	0.375315	0.723503
0	C	0.587581	0.705981	0.723105
0	C	0.37527	0.434805	0.561396
0	C	0.525966	0.92144	0.561402
0	C	0.041719	0.58882	0.560392
0	H	0.930051	0.223262	0.0449327
0	H	0.742867	0.697582	0.0453643
0	H	0.270163	0.0327157	0.0449226
0	H	0.0314232	0.74262	0.917372
0	H	0.218628	0.268808	0.917411
0	H	0.692079	0.933982	0.91735
0	H	0.591421	0.560291	0.373781
0	H	0.407783	0.0224186	0.373408
0	H	0.944135	0.371901	0.375028
0	H	0.69921	0.0767472	0.267058
0	H	0.88771	0.613379	0.266516
0	H	0.351959	0.266588	0.266786
0	H	0.262644	0.889679	0.695507
0	H	0.0740264	0.352946	0.695886
0	H	0.610172	0.699965	0.695614
0	H	0.370336	0.40614	0.588694
0	H	0.55391	0.94398	0.588991
0	H	0.0178774	0.594666	0.587411
0	C	0.971586	0.216439	0.102426
0	C	0.747996	0.745044	0.102884
0	C	0.222593	0.991489	0.102487
0	C	0.990373	0.749641	0.859758
0	C	0.213375	0.221087	0.859948
0	C	0.739441	0.975489	0.859779
0	C	0.63813	0.550165	0.428691
0	C	0.416541	0.0776619	0.428723
0	C	0.88681	0.326467	0.429783
0	C	0.653376	0.0853282	0.211433
0	C	0.879438	0.559236	0.210855
0	C	0.406507	0.311408	0.211165
0	C	0.308421	0.880937	0.751119
0	C	0.0823818	0.407217	0.751505
0	C	0.555305	0.655011	0.751131
0	C	0.323586	0.416117	0.533768
0	C	0.545227	0.888804	0.533652
0	C	0.0749665	0.639964	0.532569
0	C	0.0384724	0.279135	0.105577
0	C	0.68444	0.748643	0.10554
0	C	0.219378	0.924588	0.105481
0	C	0.923545	0.686933	0.856422
0	C	0.276829	0.217288	0.857307
0	C	0.742688	0.0424196	0.856922
0	C	0.704756	0.613351	0.431244
0	C	0.353071	0.0815551	0.431099
0	C	0.883361	0.25943	0.432878
0	C	0.586961	0.0217788	0.209211
0	C	0.942919	0.555283	0.208498
0	C	0.409878	0.378443	0.208372
0	C	0.37481	0.944528	0.753348
0	C	0.0189094	0.411177	0.753839
0	C	0.551898	0.587954	0.753922
0	C	0.256961	0.352942	0.531217
0	C	0.608693	0.884906	0.531277
0	C	0.0784222	0.707001	0.529452
0	C	0.0379591	0.341981	0.125121
0	C	0.621461	0.685157	0.124211
0	C	0.283333	0.924547	0.123736
0	C	0.924186	0.623993	0.837116
0	C	0.339822	0.280648	0.838539
0	C	0.678823	0.0425249	0.838579
0	C	0.703654	0.676416	0.450069
0	C	0.289819	0.0174042	0.449165
0	C	0.947223	0.260132	0.451915
0	C	0.587864	0.958191	0.191018
0	C	0.00669726	0.619039	0.190584
0	C	0.345743	0.377912	0.189896
0	C	0.373831	0.00806311	0.771564
0	C	0.955151	0.347455	0.771794
0	C	0.616067	0.588486	0.772363
0	C	0.258039	0.289854	0.512411
0	C	0.671966	0.949058	0.513229
0	C	0.0146031	0.706315	0.510377
0	C	0.115529	0.403475	0.123754
0	C	0.558786	0.700209	0.12137
0	C	0.267645	0.846707	0.122042
0	C	0.846506	0.562668	0.838098
0	C	0.402354	0.265365	0.841225
0	C	0.694595	0.120392	0.840204
0	C	0.780925	0.738385	0.448361
0	C	0.22721	0.032614	0.446992
0	C	0.932202	0.182538	0.450838
0	C	0.511007	0.89567	0.194456
0	C	0.0688703	0.603172	0.193347
0	C	0.360033	0.455184	0.192335
0	C	0.45054	0.0707635	0.767826
0	C	0.892907	0.363186	0.768861
0	C	0.601846	0.511246	0.769829
0	C	0.180685	0.22802	0.513893
0	C	0.734514	0.933744	0.515302
0	C	0.0297135	0.783942	0.511348
0	C	0.157397	0.369815	0.104737
0	C	0.592347	0.776135	0.103597
0	C	0.191628	0.805203	0.104411
0	C	0.804521	0.596428	0.856831
0	C	0.368721	0.189513	0.859113
0	C	0.770469	0.16181	0.858049
0	C	0.823258	0.705017	0.42967
0	C	0.260814	0.108874	0.42977
0	C	0.856736	0.1404	0.43258
0	C	0.468582	0.929729	0.212193
0	C	0.0345577	0.526903	0.210646
0	C	0.436246	0.497414	0.209572
0	C	0.493064	0.0367792	0.750127
0	C	0.927208	0.439442	0.751552
0	C	0.525592	0.468999	0.752662
0	C	0.138382	0.261416	0.53259
0	C	0.700869	0.857465	0.5325
0	C	0.105144	0.826061	0.529668
0	C	0.103453	0.29369	0.0945447
0	C	0.669145	0.79872	0.094356
0	C	0.169035	0.859667	0.0949379
0	C	0.858454	0.672506	0.867111
0	C	0.292016	0.16715	0.86851
0	C	0.792963	0.107293	0.867599
0	C	0.769873	0.628461	0.420088
0	C	0.337601	0.131696	0.420285
0	C	0.83381	0.194282	0.422076
0	C	0.521969	0.00670339	0.220701
0	C	0.95775	0.504761	0.219487
0	C	0.459579	0.443552	0.219137
0	C	0.439793	0.959714	0.741774
0	C	0.00404304	0.461638	0.74277
0	C	0.502183	0.522838	0.743188
0	C	0.19183	0.337896	0.542296
0	C	0.62412	0.834714	0.54205
0	C	0.127983	0.772148	0.540257
0	C	0.126962	0.249655	0.0764617
0	C	0.713068	0.866118	0.0768241
0	C	0.101383	0.837019	0.0777228
0	C	0.834892	0.716658	0.884967
0	C	0.248097	0.0998282	0.886138
0	C	0.860516	0.129892	0.884952
0	C	0.794128	0.584718	0.402461
0	C	0.380943	0.199558	0.403066
0	C	0.766462	0.170205	0.404032
0	C	0.498118	0.0510034	0.238025
0	C	0.913423	0.437164	0.236687
0	C	0.527334	0.46739	0.236526
0	C	0.463686	0.915448	0.724444
0	C	0.0483711	0.529222	0.725554
0	C	0.434382	0.498936	0.725851
0	C	0.167607	0.381669	0.559921
0	C	0.580772	0.766848	0.559258
0	C	0.195294	0.796179	0.558346
0	C	0.815369	0.974635	0.0465691
0	C	0.992525	0.832126	0.047832
0	C	0.133894	0.147723	0.0449965
0	C	0.145759	0.991346	0.916437
0	C	0.969235	0.134625	0.914933
0	C	0.828039	0.818674	0.916346
0	C	0.483481	0.309668	0.374368
0	C	0.656339	0.162695	0.374231
0	C	0.802228	0.481764	0.373519
0	C	0.809595	0.328685	0.265744
0	C	0.637109	0.473467	0.265748
0	C	0.491795	0.155023	0.2666
0	C	0.152215	0.637762	0.696565
0	C	0.324522	0.492647	0.696602
0	C	0.470114	0.811505	0.695842
0	C	0.478228	0.656756	0.58797
0	C	0.305341	0.803541	0.588149
0	C	0.159667	0.484706	0.588867
0	C	0.884612	0.0247735	0.0310175
0	C	0.941946	0.85146	0.0324067
0	C	0.115781	0.0790262	0.028532
0	C	0.076467	0.941145	0.931897
0	C	0.0197484	0.115182	0.930334
0	C	0.846187	0.88737	0.932828
0	C	0.553352	0.361091	0.3603
0	C	0.604452	0.18099	0.359826
0	C	0.784493	0.41185	0.359386
0	C	0.739338	0.278682	0.279983
0	C	0.688238	0.454051	0.280037
0	C	0.510882	0.225405	0.2805
0	C	0.222466	0.687782	0.682318
0	C	0.273357	0.511958	0.682243
0	C	0.451052	0.741153	0.681895
0	C	0.408336	0.60533	0.602
0	C	0.357204	0.785177	0.602508
0	C	0.17746	0.554655	0.602968
0	H	0.883065	0.0656733	0.0124463
0	H	0.901048	0.809257	0.014024
0	H	0.15888	0.0810891	0.0103812
0	H	0.0779772	0.900258	0.950504
0	H	0.0603958	0.15713	0.948968
0	H	0.803043	0.885355	0.950912
0	H	0.552651	0.404119	0.343443
0	H	0.561163	0.137074	0.343593
0	H	0.82827	0.412321	0.342696
0	H	0.738911	0.23516	0.296903
0	H	0.731375	0.49712	0.296836
0	H	0.467777	0.225893	0.29738
0	H	0.222891	0.73137	0.665471
0	H	0.229898	0.468588	0.665805
0	H	0.494106	0.740734	0.664924
0	H	0.409022	0.562362	0.618933
0	H	0.400165	0.828813	0.619097
0	H	0.133659	0.554267	0.619588
0	H	0.908434	0.000565337	0.0127587
0	H	0.965771	0.898959	0.0140175
0	H	0.0690037	0.0566518	0.00952648
0	H	0.0524827	0.965283	0.950078
0	H	0.995813	0.067364	0.94845
0	H	0.892898	0.909668	0.951891
0	H	0.577389	0.338606	0.340812
0	H	0.626406	0.226251	0.339634
0	H	0.738569	0.388141	0.339697
0	H	0.716545	0.302426	0.299493
0	H	0.665389	0.408018	0.299654
0	H	0.557155	0.248697	0.299952
0	H	0.245181	0.664071	0.662721
0	H	0.296062	0.55749	0.662244
0	H	0.404703	0.717835	0.662507
0	H	0.384177	0.627826	0.621385
0	H	0.335117	0.739427	0.622333
0	H	0.223328	0.578321	0.622704
0	H	0.921246	0.0529886	0.0558184
0	H	0.913792	0.86017	0.0572782
0	H	0.106499	0.0410924	0.0527959
0	H	0.0399849	0.912905	0.907042
0	H	0.0482202	0.106972	0.905443
0	H	0.855619	0.925346	0.908561
0	H	0.589273	0.386438	0.385794
0	H	0.579515	0.193032	0.385075
0	H	0.773924	0.375641	0.384787
0	H	0.702978	0.253907	0.254616
0	H	0.713415	0.442683	0.254646
0	H	0.521544	0.261331	0.254949
0	H	0.258885	0.712454	0.707674
0	H	0.248636	0.524073	0.707561
0	H	0.440523	0.705197	0.707415
0	H	0.372523	0.579892	0.576476
0	H	0.382601	0.773867	0.577196
0	H	0.188149	0.590844	0.577542
0	F	0.703755	0.026532	0.979405
0	F	0.941851	0.671113	0.979818
0	F	0.296121	0.255879	0.978014
0	F	0.256499	0.938293	0.983806
0	F	0.021033	0.296016	0.983101
0	F	0.666302	0.70976	0.983311
0	F	0.379416	0.374123	0.305362
0	F	0.592486	0.994828	0.305028
0	F	0.970266	0.584418	0.304856
0	F	0.909461	0.261465	0.336002
0	F	0.701417	0.640036	0.335196
0	F	0.324902	0.0551026	0.336401
0	F	0.0523837	0.705084	0.626398
0	F	0.260862	0.3261	0.627361
0	F	0.636802	0.911671	0.626029
0	F	0.582305	0.592225	0.657003
0	F	0.369763	0.9715	0.657483
0	F	0.991615	0.382306	0.657605
0	F	0.630246	0.987879	0.0260594
0	F	0.982136	0.636138	0.0258488
0	F	0.328307	0.331282	0.0235986
0	F	0.330692	0.978385	0.937539
0	F	0.979622	0.330354	0.937361
0	F	0.63345	0.634909	0.937392
0	F	0.299293	0.31796	0.346918
0	F	0.652303	0.973263	0.345644
0	F	0.993121	0.664966	0.346092
0	F	0.990855	0.317608	0.295205
0	F	0.644041	0.664176	0.294175
0	F	0.301313	0.973724	0.295689
0	F	0.970976	0.649012	0.667197
0	F	0.317488	0.301541	0.6687
0	F	0.660613	0.992914	0.666882
0	F	0.662431	0.648542	0.615475
0	F	0.309299	0.992664	0.617142
0	F	0.968849	0.301637	0.616475
0	F	0.691462	0.139236	0.986355
0	F	0.831048	0.546212	0.986473
0	F	0.422054	0.271488	0.986461
0	F	0.270428	0.82646	0.976038
0	F	0.131203	0.421429	0.975738
0	F	0.540549	0.694948	0.975554
0	F	0.344445	0.47163	0.321884
0	F	0.49905	0.862598	0.322784
0	F	0.10188	0.618434	0.32235
0	F	0.944768	0.163705	0.319906
0	F	0.797418	0.772077	0.318667
0	F	0.192718	0.0203973	0.319412
0	F	0.0175152	0.803043	0.642422
0	F	0.164111	0.194414	0.643556
0	F	0.76891	0.946043	0.642755
0	F	0.617641	0.494918	0.640312
0	F	0.462544	0.103977	0.639413
0	F	0.859854	0.347933	0.639978
0	F	0.647052	0.110809	0.0437673
0	F	0.860136	0.530186	0.0437825
0	F	0.435164	0.31596	0.0437044
0	F	0.314455	0.856003	0.918596
0	F	0.101216	0.436238	0.918401
0	F	0.526622	0.650628	0.91822
0	F	0.311623	0.434688	0.380316
0	F	0.538648	0.869161	0.38086
0	F	0.096639	0.652517	0.380356
0	F	0.978131	0.200677	0.261532
0	F	0.759761	0.767787	0.260352
0	F	0.197598	0.986288	0.261372
0	F	0.983622	0.76596	0.700712
0	F	0.201226	0.197918	0.701925
0	F	0.764433	0.980074	0.700885
0	F	0.650064	0.531925	0.581845
0	F	0.422415	0.0967328	0.581412
0	F	0.86541	0.31395	0.582002
0	F	0.818316	0.207183	0.0149233
0	F	0.76133	0.604029	0.0151939
0	F	0.364587	0.144529	0.0151177
0	F	0.143186	0.758751	0.947663
0	F	0.200785	0.363218	0.947163
0	F	0.597571	0.821905	0.947002
0	F	0.479033	0.537306	0.341778
0	F	0.429779	0.928907	0.343377
0	F	0.0347808	0.484283	0.343465
0	F	0.81022	0.0992715	0.299837
0	F	0.864401	0.703406	0.298449
0	F	0.260784	0.15465	0.298569
0	F	0.151758	0.867422	0.66283
0	F	0.0973927	0.263184	0.663846
0	F	0.700626	0.811739	0.663468
0	F	0.48284	0.429189	0.620653
0	F	0.532087	0.0378585	0.618807
0	F	0.926913	0.482149	0.61888
0	F	0.770403	0.203088	0.0700397
0	F	0.765851	0.55993	0.0701527
0	F	0.406882	0.192931	0.0703028
0	F	0.19112	0.76314	0.892513
0	F	0.195711	0.406698	0.892093
0	F	0.555006	0.773705	0.891819
0	F	0.438429	0.538269	0.398578
0	F	0.433067	0.889818	0.400199
0	F	0.074258	0.526368	0.400234
0	F	0.850781	0.0970474	0.24325
0	F	0.864545	0.744904	0.241735
0	F	0.219892	0.113034	0.241944
0	F	0.110907	0.869225	0.719402
0	F	0.0968469	0.221395	0.720527
0	F	0.742015	0.853145	0.720051
0	F	0.523245	0.428126	0.563815
0	F	0.528261	0.0765514	0.561953
0	F	0.887602	0.440003	0.562104
0	F	0.993228	0.358598	0.107206
0	F	0.607205	0.624552	0.10649
0	F	0.343255	0.968678	0.104915
0	F	0.968454	0.607184	0.855437
0	F	0.354332	0.341319	0.856273
0	F	0.618838	0.998462	0.857369
0	F	0.658382	0.6919	0.431811
0	F	0.275627	0.957532	0.430532
0	F	0.00740877	0.304482	0.433364
0	F	0.634638	0.94424	0.208737
0	F	0.0211085	0.679156	0.208976
0	F	0.285594	0.332321	0.207969
0	F	0.326691	0.0217021	0.754045
0	F	0.940841	0.28726	0.753539
0	F	0.676205	0.634163	0.75431
0	F	0.303042	0.274153	0.53081
0	F	0.686236	0.00890139	0.531928
0	F	0.954397	0.662061	0.528943
0	F	0.0129354	0.327266	0.162822
0	F	0.634575	0.674914	0.162315
0	F	0.295354	0.949779	0.161416
0	F	0.949871	0.638633	0.79955
0	F	0.326572	0.290922	0.800469
0	F	0.666861	0.0172418	0.800911
0	F	0.678807	0.662414	0.487817
0	F	0.302729	0.00560906	0.486993
0	F	0.958362	0.285845	0.489479
0	F	0.610393	0.97032	0.152778
0	F	0.994601	0.630804	0.152575
0	F	0.335197	0.353984	0.151946
0	F	0.35174	0.996029	0.809887
0	F	0.96722	0.335925	0.809855
0	F	0.626586	0.612312	0.810334
0	F	0.2832	0.303918	0.474728
0	F	0.659038	0.960973	0.47543
0	F	0.00343662	0.68049	0.472837
0	F	0.122339	0.458742	0.102908
0	F	0.506179	0.652928	0.0987404
0	F	0.31462	0.839298	0.0999108
0	F	0.839124	0.507154	0.858916
0	F	0.45527	0.312653	0.86368
0	F	0.647455	0.127899	0.862106
0	F	0.787039	0.793034	0.427166
0	F	0.174264	0.985869	0.424338
0	F	0.980012	0.175268	0.429462
0	F	0.506679	0.843393	0.217319
0	F	0.121593	0.649748	0.216198
0	F	0.312876	0.46105	0.215172
0	F	0.454359	0.122596	0.744751
0	F	0.840382	0.316547	0.745923
0	F	0.648937	0.505504	0.746861
0	F	0.174207	0.173078	0.534929
0	F	0.787588	0.980431	0.537906
0	F	0.981867	0.791359	0.532592
0	F	0.140325	0.430631	0.160076
0	F	0.527941	0.695213	0.156862
0	F	0.27239	0.822005	0.158001
0	F	0.822252	0.535844	0.801644
0	F	0.432801	0.270086	0.80563
0	F	0.690243	0.145089	0.804161
0	F	0.80587	0.766312	0.484513
0	F	0.19678	0.0270525	0.482696
0	F	0.936189	0.158509	0.487156
0	F	0.484876	0.864209	0.159194
0	F	0.0998112	0.608427	0.157854
0	F	0.353943	0.480166	0.156768
0	F	0.47692	0.102773	0.802926
0	F	0.861699	0.357884	0.804265
0	F	0.608105	0.486172	0.805324
0	F	0.155981	0.2005	0.477631
0	F	0.764776	0.939269	0.479544
0	F	0.0258981	0.807863	0.474963
0	F	0.195046	0.405768	0.0727411
0	F	0.55747	0.779362	0.0713458
0	F	0.188371	0.766857	0.0722817
0	F	0.76644	0.560478	0.88871
0	F	0.403777	0.186337	0.891292
0	F	0.773504	0.200102	0.890156
0	F	0.860458	0.740516	0.39746
0	F	0.225651	0.112996	0.397917
0	F	0.854589	0.101502	0.400986
0	F	0.431604	0.895701	0.244809
0	F	0.0687312	0.522731	0.242985
0	F	0.43981	0.536298	0.241483
0	F	0.529801	0.0706326	0.717409
0	F	0.893085	0.443592	0.719184
0	F	0.52201	0.430236	0.720683
0	F	0.100979	0.225777	0.564713
0	F	0.736092	0.853259	0.564298
0	F	0.107265	0.865049	0.561209
0	F	0.206518	0.373588	0.130318
0	F	0.586791	0.819903	0.129661
0	F	0.147962	0.756709	0.130601
0	F	0.755759	0.592777	0.83101
0	F	0.37393	0.145522	0.833068
0	F	0.814351	0.210334	0.831941
0	F	0.872877	0.709968	0.455252
0	F	0.255713	0.152107	0.456437
0	F	0.81251	0.0922701	0.458752
0	F	0.41875	0.923616	0.186406
0	F	0.0400749	0.483248	0.184467
0	F	0.479417	0.545535	0.183053
0	F	0.54311	0.0432409	0.775856
0	F	0.921606	0.48307	0.777713
0	F	0.482504	0.420753	0.77915
0	F	0.0889348	0.256712	0.506955
0	F	0.705816	0.814211	0.505783
0	F	0.149447	0.874106	0.503482
0	S	0.93862	0.160081	0.143591
0	S	0.804273	0.768814	0.144137
0	S	0.198193	0.0244625	0.143435
0	S	0.0236319	0.806215	0.818703
0	S	0.157148	0.197379	0.818674
0	S	0.763548	0.942675	0.818627
0	S	0.608478	0.490828	0.468677
0	S	0.475205	0.105877	0.469022
0	S	0.856827	0.357354	0.469218
0	S	0.683281	0.144437	0.171348
0	S	0.820566	0.531021	0.170627
0	S	0.434532	0.279914	0.171078
0	S	0.278507	0.821667	0.791123
0	S	0.14129	0.435484	0.791716
0	S	0.527046	0.686419	0.791152
0	S	0.353216	0.475337	0.49372
0	S	0.486604	0.860626	0.493333
0	S	0.104735	0.608968	0.49308
0	S	0.0675919	0.164854	0.0602313
0	S	0.798473	0.891335	0.061342
0	S	0.0757467	0.89744	0.0625786
0	S	0.894296	0.801426	0.901228
0	S	0.162653	0.0746073	0.901556
0	S	0.886059	0.0693892	0.900068
0	S	0.735428	0.498317	0.388535
0	S	0.467525	0.226706	0.389213
0	S	0.738522	0.229211	0.389703
0	S	0.557784	0.13737	0.251496
0	S	0.827193	0.411906	0.250366
0	S	0.554321	0.4076	0.250715
0	S	0.404074	0.829084	0.710948
0	S	0.134612	0.554509	0.711886
0	S	0.407308	0.558618	0.711575
0	S	0.226391	0.46806	0.573831
0	S	0.494187	0.739706	0.573099
0	S	0.22317	0.7371	0.572623
0	C	0.699466	0.919686	0.070096
0	C	0.0479754	0.770605	0.0709666
0	C	0.193782	0.26287	0.0696543
0	C	0.261704	0.046294	0.892984
0	C	0.913905	0.196273	0.891837
0	C	0.768071	0.703572	0.891604
0	C	0.366277	0.252245	0.395669
0	C	0.714734	0.103376	0.396166
0	C	0.861075	0.599007	0.394838
0	C	0.926749	0.383688	0.244419
0	C	0.579903	0.534022	0.243949
0	C	0.431498	0.0376121	0.245767
0	C	0.0350283	0.582691	0.717839
0	C	0.381835	0.432258	0.718515
0	C	0.530323	0.92889	0.71671
0	C	0.595426	0.714152	0.566663
0	C	0.247031	0.862977	0.566278
0	C	0.10069	0.367453	0.567558
0	H	0.650509	0.918177	0.0771758
0	H	0.0497248	0.72318	0.0778464
0	H	0.240802	0.311396	0.0770644
0	H	0.310673	0.0477825	0.885966
0	H	0.912173	0.243725	0.885017
0	H	0.721058	0.655128	0.884091
0	H	0.316454	0.249631	0.401695
0	H	0.718028	0.0565323	0.402288
0	H	0.90774	0.648696	0.400786
0	H	0.976043	0.385117	0.238497
0	H	0.577316	0.581231	0.23773
0	H	0.384452	0.988146	0.240089
0	H	0.985711	0.581227	0.723732
0	H	0.384449	0.385085	0.724807
0	H	0.577349	0.978369	0.722416
0	H	0.645239	0.716752	0.56063
0	H	0.243751	0.909841	0.560206
0	H	0.0539928	0.317789	0.561621
