#******************************************
#
# CIF file created by Zeo++
# Zeo++ is an open source package to
# analyze microporous materials
#
#*******************************************

_cell_length_a		24.0546(0)
_cell_length_b		23.9874(0)
_cell_length_c		14.392(0)
_cell_angle_alpha		90(0)
_cell_angle_beta		90(0)
_cell_angle_gamma		119.593(0)

_symmetry_space_group_name_H-M		'P1'
_symmetry_Int_Tables_number		1
_symmetry_cell_setting		Monoclinic

loop_
_symmetry_equiv_pos_as_xyz
'+x,+y,+z'

loop_
_atom_site_label
_atom_site_type_symbol
_atom_site_fract_x
_atom_site_fract_y
_atom_site_fract_z
0	P	0.498304	0.479675	0.123739
0	P	0.501346	0.00523148	0.512473
0	P	0.982284	0.496776	0.828195
0	P	0.49386	0.506339	0.666584
0	P	0.481939	0.984268	0.991605
0	P	0.00671434	0.498528	0.323951
0	O	0.682414	0.402826	0.218414
0	O	0.586463	0.276654	0.559915
0	O	0.715713	0.309908	0.892225
0	O	0.305266	0.5879	0.725474
0	O	0.399526	0.716517	0.0586693
0	O	0.273108	0.682773	0.390397
0	H	0.673654	0.434397	0.185854
0	H	0.552386	0.23576	0.532921
0	H	0.756493	0.31754	0.863357
0	H	0.312487	0.55399	0.697577
0	H	0.432469	0.757044	0.0291256
0	H	0.232498	0.675391	0.361126
0	N	0.609658	0.455114	0.262622
0	N	0.531738	0.155177	0.624667
0	N	0.838075	0.379822	0.949543
0	N	0.374861	0.534732	0.785259
0	N	0.453548	0.839716	0.114729
0	N	0.150533	0.614205	0.446862
0	N	0.548902	0.248677	0.242474
0	N	0.739903	0.2965	0.585037
0	N	0.697314	0.446662	0.917887
0	N	0.439507	0.741835	0.751699
0	N	0.246242	0.697668	0.0827563
0	N	0.294969	0.549496	0.413375
0	C	0.561492	0.514543	0.197134
0	C	0.47165	0.0442882	0.574577
0	C	0.947466	0.42975	0.894008
0	C	0.426513	0.475692	0.731043
0	C	0.513736	0.949131	0.0583647
0	C	0.0411915	0.565123	0.390767
0	C	0.613537	0.584163	0.183517
0	C	0.404327	0.0326558	0.555875
0	C	0.960953	0.374861	0.8761
0	C	0.371978	0.407838	0.713193
0	C	0.581901	0.962719	0.0414809
0	C	0.0271002	0.619707	0.373906
0	C	0.661793	0.606251	0.264881
0	C	0.382407	0.0596921	0.63667
0	C	0.934458	0.326006	0.956771
0	C	0.323852	0.385843	0.794651
0	C	0.603842	0.935716	0.122286
0	C	0.0536046	0.668277	0.4549
0	H	0.697546	0.657062	0.258717
0	H	0.332534	0.0476961	0.628504
0	H	0.947788	0.288789	0.948915
0	H	0.286971	0.335538	0.787369
0	H	0.654081	0.948849	0.114913
0	H	0.04004	0.70536	0.447731
0	H	0.687739	0.579379	0.26655
0	H	0.410908	0.112162	0.640312
0	H	0.88203	0.301653	0.959729
0	H	0.299142	0.413961	0.798202
0	H	0.576112	0.883217	0.124901
0	H	0.10602	0.692824	0.457561
0	H	0.637848	0.599746	0.331989
0	H	0.386801	0.0405826	0.703626
0	H	0.952793	0.349355	0.0239526
0	H	0.347864	0.390935	0.861337
0	H	0.598512	0.954012	0.189415
0	H	0.0355126	0.644651	0.521955
0	C	0.650439	0.592147	0.0923294
0	C	0.403961	0.066973	0.465175
0	C	0.928173	0.339968	0.7851
0	C	0.336606	0.406407	0.622834
0	C	0.585198	0.930657	0.950185
0	C	0.0591372	0.655097	0.282866
0	H	0.621605	0.586177	0.0302857
0	H	0.410239	0.0442263	0.403198
0	H	0.950777	0.368854	0.723205
0	H	0.36512	0.412615	0.560483
0	H	0.579655	0.954128	0.888404
0	H	0.0364567	0.626253	0.220953
0	H	0.666869	0.556904	0.0882642
0	H	0.442424	0.117091	0.465583
0	H	0.87774	0.327516	0.784256
0	H	0.323998	0.444553	0.623045
0	H	0.547619	0.880195	0.947986
0	H	0.109741	0.668214	0.281229
0	H	0.692866	0.639727	0.0875124
0	H	0.358885	0.0672201	0.456563
0	H	0.92941	0.295227	0.777265
0	H	0.292084	0.360831	0.614896
0	H	0.631049	0.931822	0.943288
0	H	0.0571192	0.699475	0.275696
0	C	0.58395	0.628732	0.182998
0	C	0.3551	0.96029	0.547866
0	C	0.0336607	0.399454	0.869817
0	C	0.396289	0.359088	0.705634
0	C	0.629395	0.0357061	0.0366838
0	C	0.954226	0.594531	0.368792
0	H	0.554674	0.622409	0.121449
0	H	0.36279	0.937585	0.487073
0	H	0.0560001	0.429814	0.809049
0	H	0.426552	0.36689	0.644737
0	H	0.622174	0.0586679	0.975836
0	H	0.931669	0.564312	0.308006
0	H	0.621419	0.679221	0.183725
0	H	0.306575	0.952881	0.541085
0	H	0.0430619	0.359354	0.864208
0	H	0.356075	0.310114	0.699313
0	H	0.678688	0.0450204	0.0326217
0	H	0.944329	0.634341	0.364107
0	H	0.554383	0.620887	0.244862
0	H	0.355621	0.934123	0.609825
0	H	0.0584609	0.426479	0.932114
0	H	0.423095	0.360297	0.767879
0	H	0.626081	0.0602136	0.0987286
0	H	0.929972	0.567211	0.431165
0	C	0.568331	0.478252	0.274663
0	C	0.511642	0.0923037	0.644075
0	C	0.901111	0.422127	0.966442
0	C	0.418514	0.51521	0.802049
0	C	0.475391	0.903292	0.131377
0	C	0.0873172	0.572493	0.463517
0	C	0.616573	0.420242	0.332119
0	C	0.571184	0.201288	0.685853
0	C	0.793359	0.373142	0.0135506
0	C	0.367956	0.573485	0.848096
0	C	0.4161	0.795578	0.179607
0	C	0.194887	0.620525	0.511365
0	C	0.581154	0.404916	0.414597
0	C	0.592742	0.186715	0.767772
0	C	0.80925	0.409315	0.0954455
0	C	0.404647	0.59501	0.929235
0	C	0.397518	0.812663	0.262165
0	C	0.178495	0.584629	0.593545
0	H	0.585298	0.374564	0.467805
0	H	0.625712	0.224405	0.81517
0	H	0.772536	0.404908	0.144748
0	H	0.399628	0.627314	0.978116
0	H	0.365602	0.776363	0.312093
0	H	0.214929	0.588775	0.643197
0	C	0.539706	0.429583	0.427566
0	C	0.571372	0.122137	0.788315
0	C	0.873901	0.452001	0.113388
0	C	0.449035	0.574528	0.946839
0	C	0.420817	0.877894	0.279975
0	C	0.113634	0.542551	0.611225
0	H	0.511976	0.419095	0.491534
0	H	0.587591	0.10953	0.851705
0	H	0.887735	0.480776	0.176596
0	H	0.478719	0.591085	0.00920125
0	H	0.40743	0.892579	0.344073
0	H	0.0993574	0.513922	0.674711
0	C	0.534259	0.467493	0.359061
0	C	0.530007	0.0745822	0.727699
0	C	0.920144	0.457659	0.0502699
0	C	0.4554	0.533731	0.884634
0	C	0.460764	0.923506	0.215877
0	C	0.0677936	0.537331	0.547649
0	H	0.502894	0.487929	0.369585
0	H	0.512944	0.0240245	0.743364
0	H	0.970864	0.490222	0.0642769
0	H	0.489703	0.517163	0.897934
0	H	0.47976	0.97461	0.229894
0	H	0.0169529	0.505259	0.561585
0	C	0.667976	0.401097	0.31619
0	C	0.589572	0.270266	0.659358
0	C	0.724358	0.322108	0.990971
0	C	0.316506	0.591291	0.824502
0	C	0.397093	0.725846	0.157505
0	C	0.264146	0.671109	0.489229
0	C	0.732612	0.44897	0.367248
0	C	0.542949	0.291349	0.704993
0	C	0.705575	0.256199	0.0405917
0	C	0.250455	0.544319	0.87255
0	C	0.443945	0.706053	0.205815
0	C	0.283008	0.737479	0.537451
0	C	0.724066	0.443333	0.473214
0	C	0.548091	0.291813	0.811363
0	C	0.708315	0.264036	0.14662
0	C	0.257087	0.549496	0.978793
0	C	0.439104	0.707852	0.312073
0	C	0.281604	0.730836	0.643654
0	H	0.770047	0.472977	0.508169
0	H	0.518816	0.310222	0.843159
0	H	0.690066	0.217347	0.180802
0	H	0.210405	0.520304	0.0121617
0	H	0.468095	0.689698	0.34531
0	H	0.299051	0.777742	0.676937
0	H	0.705791	0.394087	0.497924
0	H	0.597182	0.32251	0.835737
0	H	0.679321	0.284734	0.17133
0	H	0.275661	0.598784	0.00341047
0	H	0.389993	0.678166	0.337089
0	H	0.311984	0.711727	0.668357
0	H	0.691643	0.460039	0.497619
0	H	0.530992	0.243534	0.839309
0	H	0.757351	0.294422	0.171461
0	H	0.288614	0.532097	0.00477529
0	H	0.456866	0.756771	0.337861
0	H	0.233026	0.69967	0.669628
0	C	0.752981	0.517895	0.337097
0	C	0.473786	0.244504	0.675634
0	C	0.752292	0.233402	0.01018
0	C	0.228933	0.475103	0.842598
0	C	0.512962	0.752695	0.175645
0	C	0.235591	0.759534	0.507562
0	H	0.799777	0.552075	0.365936
0	H	0.440664	0.259149	0.704016
0	H	0.738471	0.186012	0.0389625
0	H	0.181894	0.441582	0.871509
0	H	0.546209	0.73809	0.203561
0	H	0.249205	0.806931	0.536102
0	H	0.719147	0.533164	0.360324
0	H	0.457365	0.195376	0.699772
0	H	0.80145	0.266047	0.0330631
0	H	0.262163	0.458912	0.86558
0	H	0.529433	0.801795	0.199826
0	H	0.186709	0.726762	0.531295
0	H	0.756629	0.522967	0.261172
0	H	0.468501	0.242485	0.599748
0	H	0.753471	0.229652	0.934216
0	H	0.225163	0.469958	0.766701
0	H	0.517811	0.754599	0.0997157
0	H	0.233836	0.762938	0.431636
0	C	0.784521	0.4327	0.338651
0	C	0.561281	0.358811	0.669813
0	C	0.637501	0.206438	0.0106734
0	C	0.200363	0.562342	0.840666
0	C	0.425643	0.637946	0.174075
0	C	0.350532	0.787351	0.505449
0	H	0.832245	0.471398	0.357442
0	H	0.524027	0.37087	0.686431
0	H	0.627249	0.15762	0.026378
0	H	0.151792	0.524127	0.856624
0	H	0.463338	0.626519	0.190548
0	H	0.36089	0.836125	0.521938
0	H	0.783966	0.425646	0.262919
0	H	0.567539	0.361926	0.59384
0	H	0.631478	0.209253	0.935266
0	H	0.2032	0.570284	0.765018
0	H	0.418017	0.633072	0.0983336
0	H	0.355407	0.784693	0.42965
0	H	0.778397	0.389012	0.372279
0	H	0.605766	0.396051	0.701091
0	H	0.60081	0.213202	0.045696
0	H	0.206495	0.605986	0.874484
0	H	0.381817	0.601132	0.207416
0	H	0.387822	0.780664	0.538635
0	C	0.644025	0.330449	0.343952
0	C	0.66066	0.317363	0.682409
0	C	0.677145	0.346415	0.0142925
0	C	0.339696	0.662506	0.847801
0	C	0.326237	0.679571	0.18269
0	C	0.311078	0.646661	0.514096
0	H	0.684395	0.319962	0.337288
0	H	0.671149	0.367672	0.669305
0	H	0.627082	0.307099	0.00106965
0	H	0.300044	0.673186	0.834134
0	H	0.315569	0.628873	0.172992
0	H	0.3614	0.686555	0.504601
0	H	0.630867	0.322847	0.419702
0	H	0.669723	0.315701	0.758817
0	H	0.678652	0.356502	0.090944
0	H	0.349764	0.671334	0.92435
0	H	0.318009	0.68332	0.258912
0	H	0.30738	0.634363	0.59014
0	C	0.590865	0.285413	0.287632
0	C	0.704238	0.305047	0.628319
0	C	0.689106	0.402397	0.960793
0	C	0.395447	0.706214	0.794431
0	C	0.282221	0.690385	0.127248
0	C	0.301321	0.592334	0.458201
0	C	0.441779	0.401083	0.178181
0	C	0.584451	0.0329338	0.553112
0	C	0.955265	0.552228	0.873559
0	C	0.548611	0.589134	0.709251
0	C	0.400478	0.958674	0.0378762
0	C	0.0329633	0.442735	0.370507
0	C	0.448247	0.346986	0.159356
0	C	0.634776	0.0931697	0.525018
0	C	0.894942	0.543662	0.848078
0	C	0.538381	0.640042	0.683411
0	C	0.348702	0.898498	0.0130088
0	C	0.0932745	0.451002	0.34568
0	C	0.425779	0.298212	0.226385
0	C	0.687961	0.123221	0.584168
0	C	0.865784	0.566817	0.909592
0	C	0.56093	0.692582	0.744078
0	C	0.297187	0.869944	0.0752686
0	C	0.122097	0.427918	0.40791
0	H	0.434726	0.258018	0.217772
0	H	0.72518	0.17258	0.569781
0	H	0.816565	0.555996	0.896776
0	H	0.54864	0.730165	0.731264
0	H	0.258835	0.820805	0.0627912
0	H	0.171285	0.4385	0.395593
0	C	0.393078	0.300068	0.305828
0	C	0.694489	0.0922204	0.662539
0	C	0.897486	0.602554	0.988653
0	C	0.59813	0.697912	0.822068
0	C	0.293916	0.902111	0.154583
0	C	0.0901231	0.392537	0.487064
0	C	0.378121	0.34924	0.31315
0	C	0.649152	0.0279094	0.676716
0	C	0.961545	0.619687	0.00132327
0	C	0.617459	0.652213	0.833992
0	C	0.34096	0.966044	0.166925
0	C	0.0261281	0.375743	0.49918
0	H	0.349279	0.349181	0.371721
0	H	0.656199	0.00184225	0.733319
0	H	0.987999	0.65107	0.0590763
0	H	0.650507	0.65853	0.890161
0	H	0.336816	0.992951	0.225024
0	H	0.999444	0.344613	0.55699
0	C	0.39983	0.399361	0.247801
0	C	0.594158	0.996296	0.620827
0	C	0.992512	0.596799	0.942392
0	C	0.594724	0.597897	0.776442
0	C	0.394122	0.996495	0.107287
0	C	0.995458	0.398636	0.439675
0	C	0.475856	0.336526	0.0686097
0	C	0.63778	0.126624	0.431933
0	C	0.860008	0.513744	0.755899
0	C	0.507751	0.644041	0.591228
0	C	0.342862	0.863081	0.920771
0	C	0.1286	0.480554	0.253611
0	C	0.549045	0.368801	0.0748023
0	C	0.606648	0.168976	0.440064
0	C	0.81875	0.440575	0.764404
0	C	0.434822	0.612731	0.600477
0	C	0.374507	0.821164	0.928747
0	C	0.169955	0.553729	0.261801
0	H	0.568613	0.359612	0.0117079
0	H	0.611048	0.194283	0.374825
0	H	0.792257	0.419778	0.700084
0	H	0.413646	0.617772	0.535943
0	H	0.368418	0.794395	0.864467
0	H	0.196469	0.574295	0.197439
0	H	0.56376	0.350743	0.134648
0	H	0.6293	0.204996	0.495084
0	H	0.78403	0.427291	0.821244
0	H	0.42151	0.634756	0.656778
0	H	0.353495	0.786491	0.985773
0	H	0.204647	0.567087	0.318696
0	H	0.572732	0.420862	0.0833654
0	H	0.555647	0.141944	0.456735
0	H	0.846435	0.416575	0.778855
0	H	0.411489	0.561417	0.616011
0	H	0.425876	0.84851	0.942589
0	H	0.142327	0.577831	0.275928
0	C	0.449179	0.263931	0.0520816
0	C	0.708544	0.170109	0.40332
0	C	0.815297	0.540811	0.73046
0	C	0.534378	0.715325	0.564478
0	C	0.271459	0.818672	0.896372
0	C	0.173268	0.453242	0.22934
0	H	0.396824	0.238043	0.0517876
0	H	0.734137	0.143012	0.400902
0	H	0.84172	0.59325	0.727589
0	H	0.586686	0.740863	0.561808
0	H	0.2456	0.8455	0.893923
0	H	0.146756	0.400799	0.226996
0	H	0.46507	0.242579	0.106347
0	H	0.733821	0.210029	0.452359
0	H	0.776474	0.526433	0.781404
0	H	0.519837	0.740223	0.614838
0	H	0.247516	0.779892	0.947502
0	H	0.211934	0.467773	0.280605
0	H	0.465236	0.254995	0.985457
0	H	0.712266	0.191197	0.334692
0	H	0.79291	0.523309	0.662637
0	H	0.516931	0.71997	0.496402
0	H	0.266147	0.795979	0.828596
0	H	0.195931	0.470389	0.161598
0	C	0.455751	0.361663	0.983592
0	C	0.605949	0.077512	0.352677
0	C	0.907511	0.531293	0.674397
0	C	0.524751	0.612808	0.510364
0	C	0.37201	0.910558	0.839081
0	C	0.0814608	0.462911	0.171641
0	H	0.406164	0.35134	0.989803
0	H	0.617007	0.0384554	0.357605
0	H	0.946256	0.58105	0.67935
0	H	0.574433	0.623238	0.514791
0	H	0.360739	0.949461	0.844178
0	H	0.0426765	0.413179	0.176538
0	H	0.459115	0.338829	0.919434
0	H	0.623	0.100191	0.284653
0	H	0.883583	0.526406	0.607628
0	H	0.519241	0.631127	0.443233
0	H	0.353077	0.886492	0.77242
0	H	0.105656	0.467716	0.10515
0	H	0.486126	0.413162	0.971899
0	H	0.553977	0.0568068	0.350421
0	H	0.928503	0.500032	0.669098
0	H	0.493565	0.560817	0.506557
0	H	0.423917	0.931665	0.833503
0	H	0.0604804	0.494152	0.165772
0	C	0.373309	0.247201	0.379104
0	C	0.75187	0.128692	0.727408
0	C	0.861681	0.623182	0.0562056
0	C	0.618232	0.754317	0.889109
0	C	0.238161	0.867039	0.222589
0	C	0.125655	0.371983	0.55519
0	C	0.432974	0.243895	0.410132
0	C	0.756056	0.192609	0.755696
0	C	0.798531	0.563679	0.0850491
0	C	0.558803	0.758675	0.918029
0	C	0.234505	0.803519	0.251916
0	C	0.188633	0.431552	0.584496
0	H	0.453665	0.230247	0.352577
0	H	0.766135	0.224454	0.695825
0	H	0.765786	0.54307	0.0260163
0	H	0.537706	0.77034	0.858821
0	H	0.222857	0.770717	0.192885
0	H	0.221229	0.452813	0.525467
0	H	0.421338	0.208439	0.465353
0	H	0.7942	0.218383	0.806516
0	H	0.773538	0.57549	0.138376
0	H	0.570892	0.796044	0.970423
0	H	0.197597	0.778675	0.30469
0	H	0.213834	0.419444	0.637082
0	H	0.470284	0.290407	0.435964
0	H	0.711012	0.184784	0.786123
0	H	0.80704	0.525978	0.112634
0	H	0.52159	0.713135	0.946737
0	H	0.280197	0.811708	0.280238
0	H	0.179784	0.468772	0.613133
0	C	0.324351	0.182891	0.3348
0	C	0.812757	0.141584	0.674344
0	C	0.847637	0.671704	0.00610252
0	C	0.666198	0.816247	0.83847
0	C	0.175923	0.853248	0.172694
0	C	0.140014	0.323543	0.505477
0	H	0.345067	0.170377	0.27606
0	H	0.820403	0.171555	0.612969
0	H	0.816917	0.650254	0.945296
0	H	0.644576	0.825089	0.777246
0	H	0.166423	0.821843	0.112502
0	H	0.170796	0.345003	0.444768
0	H	0.2826	0.184846	0.308753
0	H	0.809625	0.0967907	0.650502
0	H	0.891795	0.713302	0.981925
0	H	0.707999	0.813503	0.814694
0	H	0.178492	0.897539	0.147665
0	H	0.095977	0.281853	0.481157
0	H	0.307448	0.14348	0.384766
0	H	0.855363	0.166325	0.717981
0	H	0.823291	0.689193	0.0518959
0	H	0.683102	0.858151	0.883739
0	H	0.134563	0.829608	0.218877
0	H	0.164357	0.306179	0.551523
0	C	0.343128	0.259377	0.465652
0	C	0.746462	0.0907331	0.816568
0	C	0.900591	0.654588	0.144862
0	C	0.649743	0.746776	0.977864
0	C	0.245818	0.90665	0.310782
0	C	0.0863539	0.340457	0.643496
0	H	0.330527	0.221567	0.517486
0	H	0.78702	0.118458	0.862934
0	H	0.873436	0.667332	0.193043
0	H	0.661635	0.786318	0.0262546
0	H	0.206097	0.880034	0.358942
0	H	0.113387	0.327826	0.692105
0	H	0.299247	0.260311	0.448492
0	H	0.746002	0.0458002	0.801225
0	H	0.945121	0.698711	0.129202
0	H	0.694202	0.74656	0.962437
0	H	0.246476	0.951571	0.294515
0	H	0.0420009	0.296227	0.627477
0	H	0.376132	0.30498	0.499147
0	H	0.702885	0.0790916	0.855498
0	H	0.912771	0.622148	0.181951
0	H	0.617815	0.702129	0.0145158
0	H	0.289978	0.91846	0.348184
0	H	0.0737882	0.372732	0.680246
0	C	0.373142	0.446057	0.25619
0	C	0.54999	0.923745	0.637165
0	C	0.0651086	0.62409	0.956625
0	C	0.623329	0.553247	0.790414
0	C	0.439474	0.06914	0.121624
0	C	0.922932	0.371851	0.454003
0	C	0.308147	0.413011	0.30785
0	C	0.586073	0.894561	0.688917
0	C	0.0946174	0.688792	0.00937655
0	C	0.688408	0.589072	0.841296
0	C	0.404776	0.0993596	0.174639
0	C	0.893039	0.307097	0.506646
0	H	0.287764	0.445051	0.31254
0	H	0.554984	0.842631	0.698144
0	H	0.146558	0.709043	0.0172312
0	H	0.709206	0.55762	0.850202
0	H	0.43637	0.151339	0.18259
0	H	0.841145	0.287167	0.514633
0	H	0.312866	0.400192	0.379406
0	H	0.601406	0.915008	0.758487
0	H	0.0750438	0.683333	0.0796605
0	H	0.683702	0.604718	0.910987
0	H	0.390701	0.0796929	0.244864
0	H	0.912625	0.312322	0.576924
0	H	0.27341	0.369412	0.271852
0	H	0.62821	0.901837	0.650017
0	H	0.0865888	0.72396	0.972132
0	H	0.722642	0.631198	0.802015
0	H	0.361986	0.0919793	0.137486
0	H	0.90056	0.271656	0.469279
0	C	0.35948	0.464863	0.159822
0	C	0.528005	0.887069	0.544263
0	C	0.10047	0.638695	0.862637
0	C	0.637462	0.5318	0.696442
0	C	0.459972	0.104695	0.0277371
0	C	0.887415	0.357609	0.360174
0	H	0.3265	0.483936	0.16581
0	H	0.511443	0.835856	0.554748
0	H	0.151663	0.672561	0.871963
0	H	0.671602	0.514366	0.705647
0	H	0.478273	0.156283	0.0375245
0	H	0.836214	0.323753	0.369523
0	H	0.337132	0.423262	0.113447
0	H	0.567301	0.905217	0.494011
0	H	0.0818563	0.660585	0.813921
0	H	0.658584	0.57173	0.647109
0	H	0.419482	0.0871469	0.979593
0	H	0.905874	0.335897	0.31089
0	H	0.401926	0.502454	0.125054
0	H	0.487945	0.889039	0.511749
0	H	0.0979716	0.59667	0.828826
0	H	0.595497	0.492388	0.663441
0	H	0.498489	0.10108	0.992909
0	H	0.889841	0.399789	0.326981
0	C	0.419008	0.506433	0.311546
0	C	0.492335	0.912541	0.697077
0	C	0.0778927	0.577617	0.0146598
0	C	0.577809	0.494861	0.849627
0	C	0.498358	0.0812419	0.179288
0	C	0.910483	0.418504	0.512175
0	H	0.393294	0.529766	0.340406
0	H	0.474118	0.867864	0.737198
0	H	0.122781	0.603773	0.0539535
0	H	0.604507	0.477795	0.891817
0	H	0.517569	0.126739	0.217613
0	H	0.865352	0.392486	0.55099
0	H	0.458047	0.542532	0.269425
0	H	0.451747	0.907371	0.656175
0	H	0.0830432	0.542505	0.972559
0	H	0.544386	0.453629	0.808139
0	H	0.537875	0.0852231	0.13696
0	H	0.90593	0.453986	0.470195
0	H	0.440525	0.494683	0.370469
0	H	0.50515	0.951846	0.746904
0	H	0.0395206	0.551021	0.0653792
0	H	0.54947	0.506575	0.897651
0	H	0.486461	0.0431184	0.230857
0	H	0.948647	0.444528	0.563372
