#******************************************
#
# CIF file created by Zeo++
# Zeo++ is an open source package to
# analyze microporous materials
#
#*******************************************

_cell_length_a		14.4634(0)
_cell_length_b		14.7114(0)
_cell_length_c		10.043(0)
_cell_angle_alpha		90(0)
_cell_angle_beta		90(0)
_cell_angle_gamma		119.924(0)

_symmetry_space_group_name_H-M		'P1'
_symmetry_Int_Tables_number		1
_symmetry_cell_setting		Monoclinic

loop_
_symmetry_equiv_pos_as_xyz
'+x,+y,+z'

loop_
_atom_site_label
_atom_site_type_symbol
_atom_site_fract_x
_atom_site_fract_y
_atom_site_fract_z
0	O	0.637569	0.320001	0.768353
0	O	0.672676	0.301805	0.0918647
0	O	0.7032	0.353479	0.443828
0	O	0.381609	0.680893	0.274365
0	O	0.340946	0.698048	0.594427
0	O	0.314889	0.647787	0.943024
0	O	0.494181	0.541583	0.912444
0	O	0.464503	0.936711	0.250234
0	O	0.0755105	0.523996	0.587301
0	O	0.520229	0.45441	0.412013
0	O	0.544069	0.0600155	0.752036
0	O	0.941097	0.476408	0.0869486
0	O	0.57673	0.529274	0.0904084
0	O	0.463513	0.0368338	0.412674
0	O	0.976038	0.420492	0.749671
0	O	0.437774	0.467888	0.589457
0	O	0.553612	0.963267	0.913646
0	O	0.0404759	0.580064	0.249201
0	N	0.545266	0.202135	0.568709
0	N	0.801533	0.336508	0.898028
0	N	0.656484	0.436707	0.25046
0	N	0.473297	0.79799	0.072202
0	N	0.21401	0.663921	0.398073
0	N	0.360665	0.564362	0.747485
0	H	0.626609	0.239856	0.547052
0	H	0.843443	0.377135	0.983727
0	H	0.614697	0.425151	0.339917
0	H	0.39191	0.760664	0.0508393
0	H	0.171818	0.622633	0.483296
0	H	0.401866	0.570693	0.835862
0	H	0.50282	0.151775	0.487961
0	H	0.758169	0.371617	0.865128
0	H	0.626346	0.363852	0.204081
0	H	0.515639	0.847871	0.991148
0	H	0.257827	0.629361	0.365172
0	H	0.391782	0.63935	0.706821
0	H	0.533826	0.154175	0.65165
0	H	0.859201	0.347467	0.824555
0	H	0.639495	0.485546	0.188925
0	H	0.485021	0.846604	0.154324
0	H	0.156659	0.653299	0.324318
0	H	0.376422	0.517338	0.68082
0	N	0.561377	0.423998	0.765983
0	N	0.581078	0.121894	0.0918768
0	N	0.885827	0.445637	0.431177
0	N	0.453096	0.572828	0.266271
0	N	0.434582	0.87785	0.591994
0	N	0.132134	0.554948	0.931192
0	H	0.516048	0.450792	0.713789
0	H	0.560262	0.0524424	0.0380095
0	H	0.953529	0.497046	0.373988
0	H	0.498028	0.546169	0.21293
0	H	0.455746	0.946984	0.537148
0	H	0.0644892	0.503959	0.873481
0	C	0.510973	0.282286	0.595913
0	C	0.726562	0.221502	0.92669
0	C	0.774989	0.484761	0.275804
0	C	0.506467	0.717015	0.0997842
0	C	0.288259	0.778732	0.42817
0	C	0.242402	0.517044	0.773762
0	H	0.53619	0.339388	0.508216
0	H	0.671447	0.184685	0.836676
0	H	0.813721	0.47221	0.183562
0	H	0.480467	0.659936	0.0120075
0	H	0.343607	0.816511	0.33841
0	H	0.203783	0.530779	0.682146
0	C	0.388549	0.229442	0.613105
0	C	0.788407	0.16254	0.953518
0	C	0.827699	0.603642	0.306268
0	C	0.628772	0.767924	0.116442
0	C	0.225829	0.836991	0.455802
0	C	0.188839	0.397782	0.802115
0	H	0.370935	0.294459	0.636302
0	H	0.726607	0.0795965	0.980235
0	H	0.914682	0.631758	0.324969
0	H	0.644897	0.701618	0.138428
0	H	0.287233	0.919846	0.483355
0	H	0.1023	0.370345	0.822966
0	C	0.348047	0.150524	0.727566
0	C	0.866671	0.211313	0.0693249
0	C	0.779263	0.624108	0.430054
0	C	0.67118	0.845795	0.231988
0	C	0.147356	0.787286	0.571159
0	C	0.238148	0.375155	0.923253
0	H	0.351473	0.0792934	0.704317
0	H	0.931911	0.290819	0.0464052
0	H	0.693549	0.596919	0.418173
0	H	0.670556	0.918579	0.21011
0	H	0.0838507	0.706794	0.549036
0	H	0.323569	0.401687	0.909281
0	H	0.26476	0.125631	0.751038
0	H	0.903685	0.164273	0.0946593
0	H	0.818527	0.708044	0.45268
0	H	0.753813	0.86788	0.255468
0	H	0.10802	0.832492	0.594758
0	H	0.198505	0.290918	0.94402
0	H	0.394508	0.18349	0.818945
0	H	0.827432	0.217686	0.159471
0	H	0.786672	0.58433	0.518245
0	H	0.62434	0.812973	0.323187
0	H	0.187124	0.782989	0.661974
0	H	0.23225	0.414138	0.0131715
0	C	0.333395	0.178197	0.481723
0	C	0.844997	0.158597	0.826596
0	C	0.819353	0.662526	0.185411
0	C	0.683731	0.818898	0.984811
0	C	0.169184	0.841227	0.329117
0	C	0.194811	0.339845	0.678753
0	H	0.246914	0.145178	0.489434
0	H	0.885001	0.112917	0.843043
0	H	0.867405	0.74746	0.200099
0	H	0.770162	0.851299	0.991747
0	H	0.128427	0.886109	0.34623
0	H	0.147146	0.254796	0.692455
0	H	0.346738	0.113389	0.453065
0	H	0.906659	0.237113	0.793425
0	H	0.736529	0.644809	0.167339
0	H	0.670869	0.883958	0.956023
0	H	0.10812	0.762686	0.295245
0	H	0.277272	0.357824	0.657588
0	H	0.361715	0.235361	0.399988
0	H	0.788528	0.121494	0.74432
0	H	0.847281	0.643125	0.0939037
0	H	0.65469	0.761541	0.903214
0	H	0.225768	0.879208	0.247168
0	H	0.165025	0.360003	0.589574
0	C	0.575053	0.344877	0.717778
0	C	0.656455	0.217378	0.0436981
0	C	0.786324	0.422241	0.390683
0	C	0.44205	0.654392	0.221574
0	C	0.358039	0.782443	0.545117
0	C	0.231774	0.579064	0.889863
0	C	0.626115	0.487209	0.880841
0	C	0.508195	0.116994	0.198834
0	C	0.898675	0.37913	0.531983
0	C	0.387264	0.507444	0.379114
0	C	0.505851	0.881964	0.700612
0	C	0.118959	0.620944	0.0324737
0	H	0.647633	0.437045	0.943936
0	H	0.551657	0.190121	0.261286
0	H	0.822678	0.336122	0.591106
0	H	0.363439	0.555592	0.442602
0	H	0.461086	0.808794	0.762777
0	H	0.194412	0.662944	0.0928782
0	C	0.727733	0.584867	0.834086
0	C	0.406879	0.110005	0.141728
0	C	0.923865	0.300374	0.465895
0	C	0.287376	0.409705	0.328846
0	C	0.607456	0.888142	0.645917
0	C	0.0956245	0.701049	0.966537
0	H	0.772607	0.564358	0.76381
0	H	0.425534	0.181412	0.0860393
0	H	0.85763	0.24522	0.402589
0	H	0.242423	0.430617	0.259184
0	H	0.589114	0.815763	0.592909
0	H	0.162677	0.755753	0.903841
0	H	0.780676	0.625968	0.918409
0	H	0.350442	0.100354	0.220922
0	H	0.938324	0.254455	0.540576
0	H	0.233634	0.365992	0.411342
0	H	0.663598	0.899456	0.726306
0	H	0.0817929	0.747333	0.0413348
0	H	0.709947	0.6403	0.782885
0	H	0.365904	0.0437818	0.0726783
0	H	0.994994	0.339792	0.402375
0	H	0.307123	0.356367	0.275764
0	H	0.648623	0.95305	0.575106
0	H	0.024869	0.662888	0.902237
0	C	0.558976	0.521168	0.966418
0	C	0.477669	0.021782	0.291774
0	C	0.991186	0.44884	0.628657
0	C	0.454929	0.474413	0.46538
0	C	0.535684	0.976915	0.793686
0	C	0.0255735	0.551395	0.128211
