#******************************************
#
# CIF file created by Zeo++
# Zeo++ is an open source package to
# analyze microporous materials
#
#*******************************************

_cell_length_a		17.9353(0)
_cell_length_b		17.9721(0)
_cell_length_c		10.2628(0)
_cell_angle_alpha		90(0)
_cell_angle_beta		90(0)
_cell_angle_gamma		120.603(0)

_symmetry_space_group_name_H-M		'P1'
_symmetry_Int_Tables_number		1
_symmetry_cell_setting		Monoclinic

loop_
_symmetry_equiv_pos_as_xyz
'+x,+y,+z'

loop_
_atom_site_label
_atom_site_type_symbol
_atom_site_fract_x
_atom_site_fract_y
_atom_site_fract_z
0	C	0.602517	0.767337	0.950133
0	C	0.291428	0.86154	0.625673
0	C	0.205013	0.464952	0.299902
0	C	0.463999	0.291077	0.446108
0	C	0.775156	0.195915	0.130694
0	C	0.861436	0.592551	0.798556
0	C	0.546292	0.682362	0.864363
0	C	0.375481	0.890322	0.537744
0	C	0.175563	0.517183	0.207662
0	C	0.519585	0.37699	0.36196
0	C	0.691341	0.166869	0.041937
0	C	0.890273	0.539669	0.706603
0	C	0.464002	0.62225	0.949492
0	C	0.439444	0.876376	0.625718
0	C	0.191027	0.597836	0.290114
0	C	0.602045	0.43678	0.446899
0	C	0.626979	0.1808	0.129016
0	C	0.874559	0.459213	0.78974
0	C	0.474317	0.668632	0.0734563
0	C	0.393995	0.840316	0.75087
0	C	0.226508	0.591494	0.417077
0	C	0.592225	0.38951	0.569726
0	C	0.672403	0.217835	0.2539
0	C	0.840498	0.466647	0.917328
0	C	0.417809	0.641251	0.178724
0	C	0.423316	0.814064	0.856677
0	C	0.252029	0.649204	0.520436
0	C	0.64901	0.416398	0.674583
0	C	0.64305	0.244804	0.358765
0	C	0.81608	0.409853	0.0218634
0	H	0.356919	0.57808	0.175375
0	H	0.486534	0.817721	0.852593
0	H	0.249004	0.70887	0.511334
0	H	0.709523	0.479918	0.671953
0	H	0.579805	0.241015	0.354135
0	H	0.818946	0.350046	0.0136021
0	C	0.439544	0.695712	0.288003
0	C	0.370059	0.781734	0.967593
0	C	0.282522	0.630408	0.634767
0	C	0.628065	0.360877	0.782358
0	C	0.696243	0.27789	0.469568
0	C	0.786803	0.429643	0.136611
0	H	0.395651	0.674684	0.371447
0	H	0.393	0.762168	0.0521887
0	H	0.301311	0.674484	0.717636
0	H	0.672294	0.381319	0.865355
0	H	0.67326	0.297989	0.553443
0	H	0.76886	0.386243	0.220258
0	C	0.516255	0.775588	0.291022
0	C	0.288891	0.774517	0.970438
0	C	0.28878	0.556383	0.643492
0	C	0.55172	0.28067	0.784462
0	C	0.77741	0.285155	0.473461
0	C	0.78056	0.503709	0.144514
0	H	0.53323	0.816893	0.377481
0	H	0.248251	0.749945	0.0578878
0	H	0.311642	0.54196	0.733789
0	H	0.535284	0.238648	0.869881
0	H	0.818004	0.310445	0.560832
0	H	0.758525	0.518942	0.234957
0	C	0.573385	0.803949	0.183936
0	C	0.25807	0.798992	0.861948
0	C	0.265378	0.498898	0.537409
0	C	0.494191	0.252892	0.677901
0	C	0.80819	0.259733	0.366069
0	C	0.802868	0.560221	0.0372976
0	H	0.633638	0.867003	0.186733
0	H	0.193513	0.79184	0.864145
0	H	0.271677	0.441423	0.544204
0	H	0.434168	0.189625	0.679926
0	H	0.87264	0.266672	0.369063
0	H	0.796481	0.617634	0.0437506
0	C	0.551811	0.750361	0.0764639
0	C	0.310977	0.832034	0.753592
0	C	0.234211	0.516884	0.425741
0	C	0.51513	0.307473	0.571815
0	C	0.755371	0.226079	0.257732
0	C	0.832969	0.541397	0.925236
0	C	0.6872	0.701966	0.899469
0	C	0.350623	0.0086284	0.556777
0	C	0.0566192	0.373208	0.236223
0	C	0.378548	0.356299	0.400282
0	C	0.716136	0.0486576	0.0631383
0	C	0.00964028	0.683664	0.733237
0	C	0.761499	0.840461	0.0373036
0	C	0.218295	0.947132	0.708134
0	C	0.120794	0.304876	0.382803
0	C	0.305487	0.216587	0.535247
0	C	0.8476	0.109939	0.215867
0	C	0.946034	0.753176	0.878628
0	H	0.736534	0.878152	0.0929077
0	H	0.180674	0.884391	0.764931
0	H	0.182522	0.331335	0.442408
0	H	0.331497	0.180188	0.591848
0	H	0.8854	0.172809	0.272254
0	H	0.883954	0.72717	0.937287
0	C	0.82708	0.900774	0.936323
0	C	0.156464	0.951444	0.610208
0	C	0.120611	0.243208	0.280104
0	C	0.240698	0.154879	0.43476
0	C	0.909352	0.104471	0.119018
0	C	0.94709	0.814773	0.775006
0	H	0.79527	0.918963	0.861537
0	H	0.137524	0.901629	0.534498
0	H	0.169763	0.279098	0.204802
0	H	0.273582	0.138135	0.359764
0	H	0.928146	0.153212	0.0416993
0	H	0.897937	0.778928	0.699669
0	H	0.859173	0.870628	0.885175
0	H	0.185645	0.0143806	0.559878
0	H	0.0576796	0.205978	0.230422
0	H	0.206493	0.182933	0.383994
0	H	0.880314	0.0409441	0.0706794
0	H	0.0101193	0.851302	0.725381
0	H	0.876967	0.961332	0.981983
0	H	0.096325	0.939009	0.658357
0	H	0.137496	0.197701	0.324221
0	H	0.192433	0.0935955	0.480893
0	H	0.969573	0.117706	0.167891
0	H	0.930763	0.860901	0.818254
0	C	0.795952	0.80321	0.137864
0	C	0.258922	0.0204827	0.806887
0	C	0.0450413	0.265534	0.477713
0	C	0.26989	0.253594	0.634227
0	C	0.806265	0.036843	0.315015
0	C	0.0211439	0.792398	0.97481
0	C	0.737021	0.737937	0.222133
0	C	0.323258	0.0253926	0.890945
0	C	0.0322545	0.320756	0.559817
0	C	0.328238	0.320255	0.717245
0	C	0.742375	0.0329969	0.398933
0	C	0.0324272	0.737213	0.0592328
0	H	0.667762	0.713205	0.212394
0	H	0.34486	0.978861	0.881675
0	H	0.0750318	0.39058	0.552592
0	H	0.397655	0.345731	0.707904
0	H	0.722013	0.0804825	0.389917
0	H	0.98923	0.667423	0.0526286
0	C	0.766649	0.704581	0.318637
0	C	0.359521	0.0892149	0.986737
0	C	0.965014	0.286883	0.650623
0	C	0.297845	0.354111	0.811788
0	C	0.704881	0.968933	0.494239
0	C	0.0987234	0.771042	0.151674
0	H	0.720562	0.65275	0.382317
0	H	0.41012	0.0932428	0.0510685
0	H	0.954417	0.330161	0.712595
0	H	0.343431	0.406911	0.874592
0	H	0.654596	0.965759	0.558497
0	H	0.108248	0.727743	0.215279
0	C	0.855481	0.736825	0.333792
0	C	0.331534	0.148602	0.000917053
0	C	0.910567	0.197345	0.662356
0	C	0.208806	0.320971	0.826166
0	C	0.731235	0.908265	0.508114
0	C	0.153633	0.860551	0.162816
0	H	0.878227	0.711006	0.410062
0	H	0.359444	0.197666	0.0770354
0	H	0.858743	0.171115	0.734388
0	H	0.185371	0.347193	0.900763
0	H	0.702128	0.85878	0.583446
0	H	0.20455	0.886761	0.236276
0	C	0.914247	0.801648	0.250486
0	C	0.268229	0.144523	0.917116
0	C	0.923072	0.142221	0.58136
0	C	0.150651	0.254637	0.74436
0	C	0.79458	0.911729	0.425083
0	C	0.142765	0.915634	0.0792836
0	H	0.983575	0.826401	0.260285
0	H	0.247075	0.191518	0.925672
0	H	0.880094	0.0723398	0.58861
0	H	0.0811579	0.229113	0.753668
0	H	0.814793	0.864048	0.433973
0	H	0.186188	0.985467	0.0860428
0	C	0.884667	0.834495	0.152512
0	C	0.232054	0.0808166	0.820357
0	C	0.98972	0.176047	0.488873
0	C	0.180968	0.221217	0.648347
0	C	0.831892	0.975558	0.328714
0	C	0.0771867	0.881827	0.985047
0	H	0.931857	0.884336	0.0879466
0	H	0.183022	0.0793847	0.756065
0	H	0.99735	0.13165	0.425834
0	H	0.134266	0.170102	0.584979
0	H	0.88075	0.976276	0.264775
0	H	0.0709613	0.92617	0.919883
0	C	0.588544	0.584793	0.739858
0	C	0.467768	0.026191	0.398193
0	C	0.0387998	0.466892	0.0679553
0	C	0.476058	0.475192	0.242599
0	C	0.59958	0.0304715	0.902577
0	C	0.0265053	0.588707	0.566294
0	H	0.618558	0.545749	0.767824
0	H	0.499058	0.0974262	0.414146
0	H	0.967706	0.431598	0.0886311
0	H	0.447162	0.514708	0.273547
0	H	0.569501	0.959344	0.918452
0	H	0.0977087	0.624033	0.586039
0	H	0.517492	0.538668	0.730922
0	H	0.520358	0.0103946	0.402691
0	H	0.0599759	0.536792	0.0598611
0	H	0.547062	0.520812	0.231519
0	H	0.546055	0.0449804	0.907615
0	H	0.00519593	0.518753	0.559091
0	C	0.626702	0.631965	0.611997
0	C	0.422227	0.00156291	0.266424
0	C	0.0568139	0.433552	0.942393
0	C	0.435436	0.428351	0.115465
0	C	0.644524	0.0558218	0.770353
0	C	0.00793706	0.621376	0.44054
0	H	0.605216	0.586583	0.529646
0	H	0.463627	0.998062	0.190838
0	H	0.0375741	0.456488	0.856602
0	H	0.457237	0.473466	0.032826
0	H	0.604864	0.064377	0.697268
0	H	0.0242466	0.595754	0.354818
0	H	0.697896	0.665828	0.612537
0	H	0.405797	0.0496016	0.232384
0	H	0.0199997	0.36255	0.937629
0	H	0.364388	0.396626	0.117801
0	H	0.65655	0.00567357	0.731479
0	H	0.0466885	0.69216	0.433151
0	H	0.608534	0.68056	0.590831
0	H	0.361416	0.938864	0.268294
0	H	0.125501	0.453814	0.93112
0	H	0.451181	0.378073	0.0934287
0	H	0.707599	0.116156	0.773795
0	H	0.939678	0.603334	0.431851
0	N	0.685259	0.768419	0.968872
0	N	0.288773	0.942633	0.637185
0	N	0.123639	0.380357	0.316289
0	N	0.380968	0.289096	0.466344
0	N	0.777596	0.114751	0.143822
0	N	0.942936	0.677245	0.813335
0	N	0.601642	0.643379	0.851131
0	N	0.410198	0.983261	0.511801
0	N	0.0818723	0.457095	0.185177
0	N	0.463959	0.415928	0.352413
0	N	0.65692	0.0739578	0.0162298
0	N	0.984006	0.599342	0.683562
0	O	0.612974	0.838947	0.881647
0	O	0.219427	0.79726	0.56001
0	O	0.269596	0.457596	0.236827
0	O	0.453735	0.22001	0.376261
0	O	0.847217	0.259974	0.0649377
0	O	0.796572	0.599527	0.735675
0	H	0.647335	0.894644	0.934432
0	H	0.164112	0.772938	0.614576
0	H	0.294335	0.428659	0.294207
0	H	0.419531	0.163997	0.428323
0	H	0.902623	0.283919	0.119303
0	H	0.772138	0.628981	0.792386
0	O	0.522929	0.704633	0.747007
0	O	0.351697	0.837581	0.42694
0	O	0.226742	0.543472	0.0950041
0	O	0.542317	0.356067	0.243004
0	O	0.715614	0.219654	0.931095
0	O	0.838924	0.513221	0.594106
0	H	0.481739	0.651943	0.697352
0	H	0.403301	0.851409	0.373257
0	H	0.214117	0.581524	0.0406398
0	H	0.583471	0.409274	0.194376
0	H	0.664446	0.204896	0.875743
0	H	0.851123	0.474729	0.54002
0	O	0.406121	0.553792	0.911207
0	O	0.509576	0.891902	0.589295
0	O	0.176702	0.651824	0.248363
0	O	0.659695	0.505647	0.409583
0	O	0.556552	0.164316	0.0925444
0	O	0.887585	0.404401	0.747796
0	O	0.749321	0.691245	0.892662
0	O	0.357857	0.0793477	0.53825
0	O	0.985165	0.307974	0.22395
0	O	0.316218	0.366772	0.395518
0	O	0.708823	0.9778	0.0456157
0	O	0.0811	0.748691	0.719689
