#******************************************
#
# CIF file created by Zeo++
# Zeo++ is an open source package to
# analyze microporous materials
#
#*******************************************

_cell_length_a		12.6225(0)
_cell_length_b		14.2749(0)
_cell_length_c		15.4391(0)
_cell_angle_alpha		74.0195(0)
_cell_angle_beta		63.8093(0)
_cell_angle_gamma		64.4642(0)

_symmetry_space_group_name_H-M		'P1'
_symmetry_Int_Tables_number		1
_symmetry_cell_setting		Triclinic

loop_
_symmetry_equiv_pos_as_xyz
'+x,+y,+z'

loop_
_atom_site_label
_atom_site_type_symbol
_atom_site_fract_x
_atom_site_fract_y
_atom_site_fract_z
0	C	0.308526	0.402529	0.29645
0	C	0.5806	0.608066	0.714618
0	C	0.434071	0.442701	0.338704
0	C	0.454667	0.56805	0.672684
0	C	0.525427	0.439181	0.372918
0	C	0.363042	0.571735	0.638662
0	C	0.546159	0.543634	0.348387
0	C	0.342116	0.46736	0.663282
0	H	0.603297	0.551283	0.268604
0	H	0.285033	0.459701	0.743073
0	C	0.415665	0.633558	0.369225
0	C	0.472504	0.377309	0.642372
0	H	0.351797	0.615002	0.445401
0	H	0.536314	0.3958	0.566138
0	C	0.356586	0.639965	0.296806
0	C	0.531876	0.370807	0.714636
0	H	0.421244	0.659897	0.220791
0	H	0.467272	0.351014	0.790686
0	C	0.355478	0.534171	0.30128
0	C	0.533371	0.47653	0.709873
0	C	0.621186	0.54363	0.403227
0	C	0.266951	0.467547	0.608476
0	H	0.562126	0.558781	0.479175
0	H	0.325778	0.452682	0.532508
0	H	0.664781	0.603208	0.369335
0	H	0.223437	0.407873	0.64224
0	H	0.697281	0.467373	0.404604
0	H	0.190758	0.543725	0.60737
0	C	0.418483	0.739636	0.370409
0	C	0.469386	0.27134	0.641299
0	H	0.321169	0.799381	0.391557
0	H	0.566561	0.211507	0.620158
0	H	0.46195	0.734317	0.421253
0	H	0.425734	0.276754	0.590534
0	C	0.674907	0.864603	0.217565
0	C	0.213789	0.145437	0.7939
0	H	0.63584	0.895301	0.287635
0	H	0.252895	0.115351	0.723564
0	H	0.717403	0.917976	0.160097
0	H	0.172057	0.0914334	0.851016
0	H	0.749662	0.788028	0.220434
0	H	0.138344	0.221801	0.791602
0	C	0.422841	0.985056	0.19226
0	C	0.466094	0.0257834	0.818944
0	H	0.349166	0.982275	0.174174
0	H	0.539276	0.0287776	0.837357
0	H	0.463728	0.0409779	0.137766
0	H	0.425576	0.969465	0.873007
0	H	0.377189	0.0146109	0.263565
0	H	0.512075	0.9967	0.74744
0	C	0.61548	0.796791	0.0729426
0	C	0.272583	0.213591	0.938766
0	C	0.730595	0.69434	0.0672404
0	C	0.157462	0.316058	0.944485
0	H	0.70492	0.63327	0.123789
0	H	0.183166	0.377113	0.887919
0	H	0.806865	0.705579	0.0743268
0	H	0.0812011	0.30482	0.937388
0	H	0.769605	0.663946	0.997126
0	H	0.118526	0.346345	0.0145863
0	C	0.513753	0.774704	0.0605816
0	C	0.374253	0.235618	0.951273
0	H	0.550251	0.746433	0.99
0	H	0.337513	0.264085	0.0218268
0	H	0.428946	0.844759	0.06449
0	H	0.458861	0.165472	0.94767
0	H	0.484395	0.71396	0.116894
0	H	0.403901	0.296173	0.894909
0	C	0.657405	0.878435	0.989847
0	C	0.230595	0.13187	0.0216729
0	H	0.702973	0.847168	0.919428
0	H	0.1853	0.162899	0.0921899
0	H	0.726271	0.90011	0.997324
0	H	0.161466	0.11054	0.014206
0	H	0.577142	0.950087	0.985689
0	H	0.310761	0.0600393	0.0256421
0	C	0.226482	0.724368	0.31802
0	C	0.661908	0.286239	0.693367
0	C	0.199645	0.801522	0.243779
0	C	0.688797	0.209152	0.767648
0	H	0.270623	0.79871	0.170315
0	H	0.617886	0.212128	0.841144
0	C	0.0822282	0.883111	0.263625
0	C	0.806105	0.12744	0.747763
0	H	0.0626935	0.942667	0.205352
0	H	0.825689	0.0678671	0.80602
0	C	0.9908	0.888422	0.35769
0	C	0.897415	0.121985	0.653641
0	H	0.899896	0.9525	0.37356
0	H	0.988212	0.0578069	0.637748
0	C	0.0166088	0.810881	0.431726
0	C	0.871585	0.199459	0.579553
0	H	0.94554	0.814686	0.50518
0	H	0.942525	0.195529	0.50606
0	C	0.133405	0.728842	0.412029
0	C	0.754812	0.281583	0.599296
0	H	0.153063	0.668644	0.469989
0	H	0.735144	0.341691	0.541292
0	C	0.465137	0.248236	0.366627
0	C	0.423657	0.762498	0.64492
0	H	0.503236	0.242581	0.421857
0	H	0.385333	0.76836	0.58967
0	H	0.399256	0.205738	0.391601
0	H	0.489434	0.805072	0.620075
0	C	0.56413	0.167159	0.215949
0	C	0.32465	0.843	0.795924
0	H	0.475548	0.219993	0.204761
0	H	0.413173	0.790009	0.807124
0	H	0.55978	0.0881145	0.243925
0	H	0.329124	0.922028	0.768112
0	C	0.680861	0.165406	0.126829
0	C	0.207844	0.844695	0.884968
0	C	0.800826	0.110491	0.132348
0	C	0.0879138	0.899763	0.879418
0	H	0.808391	0.069667	0.201427
0	H	0.0804152	0.940707	0.810345
0	C	0.909163	0.109765	0.0497936
0	C	0.979516	0.900471	0.961906
0	H	0.00255682	0.0671558	0.0537997
0	H	0.886152	0.943195	0.957865
0	C	0.898226	0.163054	0.961606
0	C	0.990365	0.847	0.0500742
0	H	0.983143	0.162026	0.897358
0	H	0.905387	0.848016	0.114261
0	C	0.77881	0.217239	0.955887
0	C	0.109759	0.792577	0.0558306
0	H	0.770074	0.259193	0.887209
0	H	0.118447	0.750431	0.124472
0	C	0.67007	0.218578	0.0383375
0	C	0.218536	0.791265	0.973426
0	H	0.577308	0.261508	0.0335639
0	H	0.311285	0.748134	0.978182
0	C	0.0612898	0.316403	0.261078
0	C	0.828023	0.693826	0.750231
0	C	0.126879	0.210214	0.277801
0	C	0.762717	0.8001	0.733554
0	H	0.220141	0.181107	0.282561
0	H	0.66945	0.829415	0.728697
0	C	0.0718182	0.138518	0.289217
0	C	0.818007	0.871528	0.722302
0	H	0.122026	0.0551295	0.302388
0	H	0.768023	0.955013	0.709099
0	C	0.952804	0.173824	0.283937
0	C	0.936947	0.83597	0.72775
0	H	0.909478	0.11824	0.29331
0	H	0.980522	0.891348	0.718446
0	C	0.88777	0.280813	0.267129
0	C	0.00173938	0.728886	0.744467
0	H	0.793478	0.307547	0.26531
0	H	0.0959759	0.701904	0.746459
0	C	0.942205	0.352667	0.255279
0	C	0.947016	0.657276	0.756216
0	H	0.889596	0.43577	0.242696
0	H	0.99946	0.574119	0.768759
0	C	0.172254	0.471023	0.12414
0	C	0.717044	0.538869	0.886627
0	C	0.29914	0.45299	0.0655631
0	C	0.590088	0.557258	0.945255
0	H	0.375094	0.404464	0.0927817
0	H	0.51415	0.606033	0.91809
0	C	0.330917	0.498757	0.969196
0	C	0.55821	0.511496	0.0416191
0	H	0.43009	0.48492	0.922426
0	H	0.458981	0.525649	0.0884197
0	C	0.236051	0.562202	0.932687
0	C	0.653025	0.447649	0.0780852
0	H	0.2612	0.599474	0.858029
0	H	0.627799	0.41041	0.152752
0	C	0.108926	0.579123	0.991987
0	C	0.780206	0.43028	0.0186968
0	H	0.035016	0.628953	0.963432
0	H	0.854067	0.380102	0.047202
0	C	0.0766248	0.533557	0.0881107
0	C	0.812643	0.475827	0.922546
0	H	0.976733	0.548644	0.133062
0	H	0.912574	0.460343	0.877538
0	C	0.000495519	0.512348	0.328573
0	C	0.88872	0.498519	0.681823
0	C	0.991594	0.616338	0.303481
0	C	0.898141	0.394401	0.706379
0	H	0.0612146	0.640863	0.238025
0	H	0.828862	0.369437	0.771769
0	C	0.892241	0.691287	0.364663
0	C	0.9975	0.319941	0.644686
0	H	0.88419	0.77286	0.345407
0	H	0.00597046	0.238262	0.66349
0	C	0.80538	0.661481	0.450705
0	C	0.0838379	0.350388	0.558673
0	H	0.729212	0.719541	0.499204
0	H	0.16	0.292747	0.509737
0	C	0.816551	0.556594	0.475743
0	C	0.0721724	0.455401	0.534161
0	H	0.749804	0.532958	0.543635
0	H	0.138479	0.479538	0.466289
0	C	0.914444	0.481484	0.414569
0	C	0.974214	0.530032	0.595838
0	H	0.92171	0.399893	0.436339
0	H	0.96651	0.611729	0.574469
0	N	0.400527	0.358913	0.339235
0	N	0.488427	0.651769	0.67201
0	N	0.28051	0.510874	0.273579
0	N	0.608597	0.499713	0.737442
0	N	0.255614	0.343502	0.285602
0	N	0.633584	0.667067	0.72542
0	O	0.5808	0.363086	0.417207
0	O	0.30761	0.64785	0.594451
0	O	0.488923	0.777641	0.279049
0	O	0.398934	0.233409	0.732695
0	O	0.578591	0.202039	0.288954
0	O	0.310196	0.808416	0.722739
0	Si	0.548619	0.853608	0.193344
0	Si	0.33972	0.156975	0.8182
0	P	0.129967	0.411372	0.250886
0	P	0.759288	0.599005	0.760053
