#******************************************
#
# CIF file created by Zeo++
# Zeo++ is an open source package to
# analyze microporous materials
#
#*******************************************

_cell_length_a		6.74241(0)
_cell_length_b		11.2522(0)
_cell_length_c		32.5046(0)
_cell_angle_alpha		90(0)
_cell_angle_beta		90(0)
_cell_angle_gamma		90(0)

_symmetry_space_group_name_H-M		'P1'
_symmetry_Int_Tables_number		1
_symmetry_cell_setting		Monoclinic

loop_
_symmetry_equiv_pos_as_xyz
'+x,+y,+z'

loop_
_atom_site_label
_atom_site_type_symbol
_atom_site_fract_x
_atom_site_fract_y
_atom_site_fract_z
0	O	0.476529	0.676286	0.780414
0	O	0.0637316	0.360218	0.272558
0	O	0.564075	0.176166	0.750788
0	O	0.971441	0.861045	0.24381
0	O	0.330799	0.707336	0.719191
0	O	0.203647	0.327799	0.210801
0	O	0.705667	0.209135	0.812372
0	O	0.833563	0.826502	0.305548
0	O	0.63757	0.723166	0.856118
0	O	0.898649	0.312518	0.347962
0	O	0.407488	0.21826	0.673903
0	O	0.110951	0.827566	0.164944
0	O	0.863067	0.57588	0.84838
0	O	0.689514	0.469051	0.342317
0	O	0.176219	0.0748588	0.68308
0	O	0.360734	0.957479	0.176759
0	C	0.452107	0.651323	0.737957
0	C	0.0867427	0.385676	0.230078
0	C	0.586886	0.151851	0.79339
0	C	0.950597	0.884835	0.286463
0	C	0.630124	0.592531	0.795681
0	C	0.915586	0.446445	0.288475
0	C	0.412692	0.0912603	0.735313
0	C	0.118603	0.947934	0.22794
0	C	0.525786	0.470498	0.796591
0	C	0.0267221	0.566323	0.289414
0	C	0.519517	0.969948	0.734715
0	C	0.00774684	0.0679605	0.228063
0	H	0.381958	0.47576	0.812572
0	H	0.171583	0.557786	0.304855
0	H	0.663902	0.976101	0.718947
0	H	0.861795	0.0600258	0.213001
0	H	0.616821	0.403055	0.812798
0	H	0.940666	0.634901	0.306201
0	H	0.43038	0.901753	0.718431
0	H	0.0924221	0.137632	0.211542
0	C	0.502271	0.441316	0.750277
0	C	0.0479763	0.596397	0.243117
0	C	0.541843	0.941357	0.781092
0	C	0.98884	0.0956215	0.274598
0	H	0.579918	0.357856	0.741654
0	H	0.972583	0.681077	0.235005
0	H	0.465559	0.857421	0.789712
0	H	0.0632297	0.180243	0.283137
0	H	0.346692	0.427877	0.741099
0	H	0.203326	0.607628	0.233513
0	H	0.697325	0.929203	0.790535
0	H	0.833883	0.105899	0.284664
0	C	0.598026	0.54982	0.728078
0	C	0.945833	0.490152	0.220871
0	C	0.443051	0.0492777	0.80306
0	C	0.0929804	0.988396	0.295897
0	C	0.645011	0.533216	0.683426
0	C	0.89934	0.508525	0.176299
0	C	0.395944	0.0318875	0.84764
0	C	0.145439	0.00466666	0.340307
0	H	0.508349	0.522283	0.664808
0	H	0.0361339	0.521555	0.157835
0	H	0.531977	0.0154889	0.866013
0	H	0.0116224	0.0192474	0.359538
0	H	0.735565	0.45315	0.678439
0	H	0.807243	0.588158	0.171671
0	H	0.298664	0.954441	0.852204
0	H	0.241272	0.0828199	0.344641
0	H	0.727686	0.609003	0.670639
0	H	0.818874	0.432598	0.162914
0	H	0.320366	0.10944	0.86116
0	H	0.224361	0.92739	0.352912
0	C	0.776202	0.584165	0.75762
0	C	0.767715	0.458345	0.250789
0	C	0.265516	0.0825314	0.773222
0	C	0.268852	0.958032	0.26524
0	C	0.874428	0.702237	0.747459
0	C	0.663621	0.342183	0.240497
0	C	0.165623	0.200369	0.783008
0	C	0.374203	0.841303	0.27429
0	H	0.770222	0.776591	0.745705
0	H	0.763841	0.265701	0.239331
0	H	0.26836	0.275664	0.783938
0	H	0.273608	0.765442	0.277135
0	H	0.954661	0.698146	0.717964
0	H	0.586507	0.347151	0.210682
0	H	0.0877875	0.197316	0.812788
0	H	0.461411	0.846325	0.302894
0	H	0.987511	0.725408	0.770519
0	H	0.547501	0.321453	0.263178
0	H	0.0504962	0.221494	0.760137
0	H	0.481664	0.820007	0.249916
0	C	0.933503	0.488306	0.762225
0	C	0.615498	0.55653	0.256541
0	C	0.109518	0.986035	0.76845
0	C	0.420344	0.0569221	0.26007
0	H	0.0218161	0.503456	0.790294
0	H	0.528132	0.540868	0.284712
0	H	0.0209585	0.00146474	0.740441
0	H	0.507658	0.0431878	0.231733
0	H	0.0349372	0.488229	0.735839
0	H	0.512913	0.560693	0.230415
0	H	0.0082907	0.984865	0.794857
0	H	0.523324	0.0596953	0.286148
0	H	0.871774	0.398184	0.764786
0	H	0.681745	0.645357	0.259936
0	H	0.172526	0.896281	0.765578
0	H	0.353369	0.145709	0.257427
0	C	0.703868	0.641638	0.83613
0	C	0.84014	0.397911	0.328901
0	C	0.338792	0.138948	0.694615
0	C	0.18903	0.90088	0.186877
0	C	0.961705	0.606337	0.887797
0	C	0.585016	0.436497	0.380901
0	C	0.071584	0.107966	0.64453
0	C	0.462289	0.926038	0.137714
0	H	0.850755	0.652703	0.907488
0	H	0.692082	0.386944	0.400574
0	H	0.176848	0.160108	0.625211
0	H	0.354107	0.877424	0.117988
0	C	0.132441	0.688337	0.876821
0	C	0.412908	0.357765	0.368126
0	C	0.896866	0.183596	0.657918
0	C	0.633823	0.84656	0.150172
0	H	0.206651	0.661171	0.848145
0	H	0.335018	0.392712	0.340944
0	H	0.819417	0.146278	0.684791
0	H	0.709829	0.879002	0.178019
0	H	0.24752	0.690014	0.900733
0	H	0.301674	0.348732	0.392574
0	H	0.784961	0.192939	0.633588
0	H	0.748473	0.840848	0.126225
0	H	0.0813073	0.780016	0.872247
0	H	0.463528	0.268092	0.359994
0	H	0.944324	0.2733	0.666795
0	H	0.583972	0.755974	0.156986
0	C	0.0202079	0.48335	0.906125
0	C	0.52767	0.558177	0.400457
0	C	0.0192188	0.98695	0.623932
0	C	0.519764	0.0481316	0.11853
0	C	0.167609	0.421545	0.877149
0	C	0.381565	0.623449	0.372079
0	C	0.874421	0.917917	0.651524
0	C	0.664592	0.112786	0.147336
0	H	0.109842	0.421118	0.845521
0	H	0.43978	0.627028	0.340518
0	H	0.930993	0.913445	0.683182
0	H	0.605927	0.114034	0.17891
0	H	0.191828	0.328678	0.886093
0	H	0.358374	0.71546	0.382166
0	H	0.855312	0.826203	0.64077
0	H	0.68644	0.205481	0.137909
0	H	0.312247	0.465761	0.877095
0	H	0.23626	0.580141	0.371439
0	H	0.727389	0.959178	0.65211
0	H	0.810551	0.0701016	0.147716
0	C	0.112084	0.506504	0.949
0	C	0.434771	0.532033	0.443055
0	C	0.926965	0.0143744	0.581367
0	C	0.614272	0.0230363	0.0760598
0	H	0.239036	0.568507	0.946592
0	H	0.306177	0.47165	0.439909
0	H	0.796618	0.0733203	0.584695
0	H	0.741627	0.961599	0.0791364
0	H	0.00120781	0.550658	0.968989
0	H	0.544276	0.484809	0.462517
0	H	0.0358116	0.0636271	0.56236
0	H	0.504936	0.97765	0.0560461
0	C	0.179549	0.390312	0.968912
0	C	0.370153	0.64664	0.464597
0	C	0.866419	0.900181	0.559066
0	C	0.681664	0.138506	0.0556142
0	H	0.21563	0.406022	0.00202006
0	H	0.335852	0.627829	0.497461
0	H	0.833975	0.920098	0.526212
0	H	0.718746	0.12123	0.0226611
0	H	0.322774	0.36129	0.954536
0	H	0.226442	0.677653	0.450997
0	H	0.722639	0.867538	0.572098
0	H	0.824218	0.168445	0.0700106
0	C	0.0329416	0.290444	0.964557
0	C	0.517905	0.746315	0.461012
0	C	0.0162376	0.80153	0.562538
0	C	0.534697	0.238417	0.0591917
0	C	0.883162	0.292515	0.937164
0	C	0.666677	0.745597	0.433368
0	C	0.164798	0.802787	0.590229
0	C	0.382824	0.236932	0.0860944
0	C	0.834722	0.401171	0.911299
0	C	0.714275	0.638737	0.406617
0	C	0.209029	0.909375	0.61737
0	C	0.333292	0.128838	0.112188
0	H	0.790338	0.371194	0.879674
0	H	0.760151	0.670706	0.37531
0	H	0.256533	0.877117	0.648518
0	H	0.284955	0.159635	0.143442
0	C	0.657763	0.465841	0.930862
0	C	0.89004	0.571838	0.425791
0	C	0.382125	0.978864	0.598241
0	C	0.159881	0.0622223	0.0920655
0	H	0.529738	0.405547	0.934534
0	H	0.0170468	0.63201	0.430902
0	H	0.511504	0.920547	0.593258
0	H	0.0296831	0.120878	0.0885401
0	H	0.607371	0.540865	0.912109
0	H	0.942195	0.499594	0.405971
0	H	0.43086	0.0523291	0.617909
0	H	0.111897	0.985411	0.110274
0	H	0.694418	0.49946	0.961659
0	H	0.851182	0.534037	0.455805
0	H	0.341961	0.0156601	0.56814
0	H	0.199011	0.0302808	0.0611799
0	C	0.748112	0.187315	0.930637
0	C	0.801044	0.851168	0.42698
0	C	0.301569	0.698287	0.596413
0	C	0.246836	0.342192	0.0916199
0	H	0.703589	0.149106	0.960845
0	H	0.840913	0.8915	0.45707
0	H	0.342346	0.658727	0.566255
0	H	0.205089	0.379014	0.0610029
0	H	0.607761	0.216089	0.91587
0	H	0.943739	0.822564	0.413193
0	H	0.443612	0.727815	0.610248
0	H	0.10528	0.313753	0.105977
0	C	0.843579	0.0902154	0.903882
0	C	0.705988	0.945637	0.39906
0	C	0.208664	0.602677	0.624183
0	C	0.339451	0.440555	0.118262
0	H	0.926618	0.132481	0.878307
0	H	0.627891	0.901263	0.373256
0	H	0.130149	0.646071	0.650136
0	H	0.419713	0.39941	0.144406
0	H	0.722702	0.0386685	0.888597
0	H	0.826818	0.998221	0.384173
0	H	0.330601	0.550668	0.638913
0	H	0.217011	0.492773	0.132725
0	C	0.97707	0.00283208	0.927322
0	C	0.566294	0.0317426	0.421439
0	C	0.0700809	0.516084	0.601727
0	C	0.475392	0.527013	0.0950123
0	H	0.906279	0.97712	0.956708
0	H	0.63581	0.0626119	0.450358
0	H	0.139639	0.486152	0.572686
0	H	0.407596	0.551622	0.0652046
0	H	0.98714	0.919275	0.909276
0	H	0.549333	0.112751	0.402318
0	H	0.0547816	0.434667	0.620675
0	H	0.483664	0.611179	0.1127
0	C	0.187466	0.0500636	0.935091
0	C	0.360054	0.979589	0.43021
0	C	0.862847	0.56718	0.59321
0	C	0.686582	0.479663	0.0883362
0	H	0.221029	0.121478	0.912481
0	H	0.331857	0.903958	0.409078
0	H	0.833897	0.642508	0.614437
0	H	0.718418	0.409263	0.111402
0	H	0.295869	0.978018	0.929127
0	H	0.245889	0.047308	0.422931
0	H	0.749736	0.498871	0.600493
0	H	0.794301	0.552032	0.0944264
0	C	0.224196	0.0982886	0.978488
0	C	0.327981	0.937947	0.474624
0	C	0.829659	0.608921	0.548839
0	C	0.727161	0.430125	0.0452577
0	H	0.230064	0.0237473	0.000838418
0	H	0.326941	0.0157362	0.495521
0	H	0.829695	0.531225	0.527903
0	H	0.735107	0.504076	0.0227048
0	H	0.373014	0.140241	0.97963
0	H	0.178158	0.897793	0.477219
0	H	0.679165	0.648233	0.54632
0	H	0.875903	0.388076	0.044809
0	C	0.0680671	0.187586	0.993219
0	C	0.482911	0.848567	0.490042
0	C	0.983053	0.699288	0.533423
0	C	0.572047	0.340501	0.0302966
0	H	0.11287	0.221402	0.0239563
0	H	0.435611	0.814794	0.520632
0	H	0.934901	0.732968	0.502887
0	H	0.618974	0.305874	0.999798
0	H	0.925112	0.139347	0.998343
0	H	0.625782	0.89595	0.495776
0	H	0.126724	0.652808	0.527615
0	H	0.42967	0.388632	0.0246056
