#******************************************
#
# CIF file created by Zeo++
# Zeo++ is an open source package to
# analyze microporous materials
#
#*******************************************

_cell_length_a		18.7499(0)
_cell_length_b		12.4549(0)
_cell_length_c		21.1275(0)
_cell_angle_alpha		95.0766(0)
_cell_angle_beta		46.7217(0)
_cell_angle_gamma		86.2739(0)

_symmetry_space_group_name_H-M		'P1'
_symmetry_Int_Tables_number		1
_symmetry_cell_setting		Triclinic

loop_
_symmetry_equiv_pos_as_xyz
'+x,+y,+z'

loop_
_atom_site_label
_atom_site_type_symbol
_atom_site_fract_x
_atom_site_fract_y
_atom_site_fract_z
0	S	0.405892	0.769515	0.523835
0	S	0.536073	0.113693	0.40757
0	S	0.448979	0.90932	0.62478
0	S	0.493001	0.9737	0.306663
0	S	0.406975	0.901056	0.797106
0	S	0.534991	0.981695	0.134359
0	S	0.0107728	0.747154	0.99653
0	S	0.93133	0.135292	0.934799
0	S	0.863432	0.970874	0.116081
0	S	0.0786229	0.911501	0.815423
0	S	0.879881	0.200807	0.179925
0	S	0.062243	0.681561	0.751488
0	S	0.570897	0.287234	0.683336
0	S	0.371469	0.595649	0.247811
0	S	0.336696	0.305802	0.806784
0	S	0.605731	0.576758	0.124087
0	S	0.157086	0.507273	0.931612
0	S	0.785192	0.375164	0.999385
0	S	0.367811	0.753734	0.96783
0	S	0.574333	0.128644	0.96348
0	S	0.199384	0.985241	0.122301
0	S	0.742549	0.896986	0.809213
0	S	0.961539	0.878471	0.225584
0	S	0.980544	0.00404992	0.7058
0	Si	0.333779	0.56719	0.503584
0	Si	0.608457	0.315928	0.427511
0	Si	0.00689165	0.336292	0.189091
0	Si	0.935384	0.546231	0.742024
0	Si	0.736087	0.415958	0.629616
0	Si	0.206137	0.467007	0.301622
0	Si	0.832094	0.764215	0.402693
0	Si	0.109863	0.117744	0.528395
0	C	0.245979	0.651474	0.505857
0	C	0.696098	0.231485	0.425382
0	H	0.170969	0.674862	0.573007
0	H	0.771235	0.208531	0.358315
0	H	0.239537	0.60484	0.463538
0	H	0.702187	0.277825	0.468051
0	H	0.271409	0.727659	0.480662
0	H	0.670859	0.155077	0.450183
0	C	0.456149	0.526463	0.386623
0	C	0.48613	0.356925	0.544446
0	H	0.478462	0.595257	0.350681
0	H	0.463948	0.28823	0.5805
0	H	0.452631	0.460994	0.35053
0	H	0.489585	0.422674	0.580423
0	H	0.516467	0.495473	0.382087
0	H	0.425726	0.38757	0.548988
0	C	0.284762	0.443796	0.554632
0	C	0.657671	0.439127	0.376219
0	H	0.20651	0.462275	0.618954
0	H	0.735816	0.420417	0.311722
0	H	0.330345	0.404517	0.564773
0	H	0.6119	0.47841	0.366259
0	H	0.289374	0.382663	0.510438
0	H	0.653414	0.500344	0.420115
0	C	0.355873	0.650982	0.565243
0	C	0.586225	0.232137	0.365982
0	C	0.345554	0.640239	0.634851
0	C	0.596625	0.242743	0.296292
0	H	0.31647	0.574694	0.672654
0	H	0.625912	0.307978	0.258281
0	C	0.377519	0.726981	0.655717
0	C	0.564471	0.15597	0.275639
0	C	0.41314	0.803303	0.59925
0	C	0.528753	0.0797489	0.332207
0	C	0.378456	0.757816	0.722576
0	C	0.563543	0.125056	0.208799
0	C	0.415478	0.855706	0.712912
0	C	0.526371	0.0272523	0.218591
0	C	0.34169	0.720944	0.801796
0	C	0.600429	0.161723	0.129461
0	C	0.348143	0.792727	0.850456
0	C	0.593958	0.0898988	0.0808668
0	C	0.121847	0.734214	0.971429
0	C	0.820315	0.148235	0.959797
0	C	0.124214	0.824613	0.0132633
0	C	0.817943	0.0577904	0.918014
0	C	0.969017	0.874261	0.0583035
0	C	0.973086	0.00813353	0.873083
0	C	0.0388153	0.909172	0.0582864
0	C	0.903327	0.973221	0.873058
0	C	0.00831138	0.0232902	0.0985185
0	C	0.933856	0.859144	0.832816
0	C	0.913584	0.0651502	0.134255
0	C	0.0286058	0.817253	0.797062
0	C	0.053708	0.1066	0.105234
0	C	0.888511	0.775812	0.826004
0	H	0.130212	0.0901072	0.0737599
0	H	0.812024	0.792271	0.857443
0	C	0.992989	0.206346	0.150024
0	C	0.949241	0.676065	0.781202
0	C	0.14027	0.351464	0.110607
0	C	0.80206	0.530792	0.820569
0	H	0.15085	0.420148	0.138863
0	H	0.791588	0.462131	0.792193
0	H	0.16753	0.36852	0.0475168
0	H	0.774902	0.513461	0.883577
0	H	0.18851	0.277561	0.0954187
0	H	0.753602	0.60463	0.835998
0	C	0.959593	0.326607	0.299805
0	C	0.982418	0.556175	0.631431
0	H	0.971629	0.396698	0.325203
0	H	0.970861	0.485764	0.605836
0	H	0.997671	0.251398	0.295976
0	H	0.943709	0.631053	0.635574
0	H	0.879238	0.324316	0.348544
0	H	0.0625808	0.559288	0.582692
0	C	0.930662	0.452637	0.19826
0	C	0.0118564	0.429785	0.732499
0	H	0.938979	0.531508	0.218921
0	H	0.00335312	0.350956	0.71199
0	H	0.850448	0.447869	0.24675
0	H	0.0920929	0.434491	0.683714
0	H	0.954718	0.455203	0.134095
0	H	0.988207	0.427202	0.796507
0	C	0.771138	0.553165	0.603083
0	C	0.171028	0.329815	0.328176
0	H	0.775772	0.573372	0.550432
0	H	0.166537	0.30944	0.380723
0	H	0.844075	0.556711	0.580325
0	H	0.0980529	0.326368	0.351042
0	H	0.716742	0.618338	0.661558
0	H	0.225345	0.264671	0.269655
0	C	0.831713	0.305887	0.531348
0	C	0.110427	0.577165	0.399837
0	H	0.815307	0.223752	0.547021
0	H	0.127307	0.659214	0.384143
0	H	0.905845	0.309163	0.506153
0	H	0.036482	0.574318	0.424683
0	H	0.836709	0.313952	0.47692
0	H	0.105002	0.568861	0.45448
0	C	0.718705	0.391535	0.724979
0	C	0.223654	0.491347	0.206186
0	H	0.704872	0.30806	0.738413
0	H	0.237558	0.574815	0.192712
0	H	0.653876	0.448547	0.785759
0	H	0.288521	0.434305	0.145409
0	H	0.783649	0.403714	0.714602
0	H	0.158764	0.479168	0.216497
0	C	0.612922	0.413691	0.666432
0	C	0.329301	0.469241	0.264831
0	C	0.53793	0.496492	0.699435
0	C	0.404259	0.386345	0.231766
0	H	0.543648	0.582311	0.696271
0	H	0.398448	0.300555	0.235013
0	C	0.444627	0.459795	0.743773
0	C	0.497639	0.422924	0.187255
0	C	0.451479	0.346528	0.740882
0	C	0.490916	0.536172	0.190099
0	C	0.342851	0.51398	0.802332
0	C	0.59941	0.368651	0.128688
0	C	0.276566	0.440224	0.845181
0	C	0.665747	0.442324	0.0857389
0	C	0.293067	0.626339	0.83687
0	C	0.649107	0.256274	0.0942863
0	C	0.193079	0.636748	0.912019
0	C	0.749088	0.245744	0.0191235
0	C	0.300466	0.795311	0.93985
0	C	0.641711	0.0871024	0.991426
0	C	0.20164	0.824717	0.0141981
0	C	0.740473	0.0576254	0.917117
0	C	0.184212	0.841836	0.095886
0	C	0.757902	0.0403673	0.835439
0	C	0.271187	0.785534	0.0758263
0	C	0.670982	0.0967112	0.855427
0	C	0.0843136	0.861258	0.191203
0	C	0.857813	0.0207723	0.740116
0	C	0.0463545	0.779832	0.252667
0	C	0.895717	0.101867	0.678363
0	H	0.0917559	0.730511	0.256896
0	H	0.850454	0.150697	0.673805
0	C	0.0836109	0.970871	0.227705
0	C	0.858529	0.910985	0.703798
0	C	0.949538	0.791703	0.296359
0	C	0.992481	0.0902574	0.634777
0	C	0.72639	0.822286	0.417904
0	C	0.215618	0.0598775	0.513187
0	H	0.733139	0.78719	0.363985
0	H	0.209199	0.0956176	0.566804
0	H	0.719964	0.911748	0.421546
0	H	0.221718	0.970537	0.510169
0	H	0.655478	0.806454	0.480122
0	H	0.286533	0.075155	0.450687
0	C	0.840335	0.614054	0.401246
0	C	0.101475	0.267894	0.529774
0	H	0.917525	0.572797	0.36009
0	H	0.0243709	0.30882	0.570307
0	H	0.811927	0.575295	0.375051
0	H	0.129102	0.306994	0.556617
0	H	0.796023	0.596372	0.468832
0	H	0.14642	0.285474	0.46208
0	C	0.823046	0.835569	0.489984
0	C	0.11895	0.0462581	0.44114
0	H	0.882502	0.798971	0.484498
0	H	0.0592449	0.0824877	0.44681
0	H	0.75139	0.832495	0.556641
0	H	0.190447	0.0496439	0.374499
0	H	0.828935	0.922502	0.485147
0	H	0.113429	0.959236	0.445854
