#******************************************
#
# CIF file created by Zeo++
# Zeo++ is an open source package to
# analyze microporous materials
#
#*******************************************

_cell_length_a		7.51865(0)
_cell_length_b		19.3243(0)
_cell_length_c		22.2039(0)
_cell_angle_alpha		90(0)
_cell_angle_beta		90(0)
_cell_angle_gamma		90(0)

_symmetry_space_group_name_H-M		'P1'
_symmetry_Int_Tables_number		1
_symmetry_cell_setting		Monoclinic

loop_
_symmetry_equiv_pos_as_xyz
'+x,+y,+z'

loop_
_atom_site_label
_atom_site_type_symbol
_atom_site_fract_x
_atom_site_fract_y
_atom_site_fract_z
0	Br	0.504961	0.821847	0.276501
0	Br	0.997055	0.253726	0.795093
0	Br	0.511915	0.321773	0.239631
0	Br	0.0121255	0.755157	0.728291
0	C	0.853552	0.578366	0.256509
0	C	0.645888	0.493011	0.765238
0	C	0.162507	0.0787688	0.260666
0	C	0.368483	0.994966	0.755232
0	C	0.79255	0.5354	0.211098
0	C	0.707554	0.536894	0.720659
0	C	0.222411	0.0368797	0.306971
0	C	0.306382	0.031456	0.804676
0	C	0.783424	0.462315	0.220359
0	C	0.719266	0.609578	0.731616
0	C	0.233478	0.963689	0.298755
0	C	0.287208	0.104749	0.801477
0	H	0.732272	0.429986	0.183586
0	H	0.771847	0.642487	0.695578
0	H	0.286093	0.932145	0.335788
0	H	0.234393	0.132272	0.840766
0	C	0.838818	0.433474	0.273393
0	C	0.66558	0.63727	0.785375
0	C	0.178427	0.933358	0.246335
0	C	0.334497	0.139927	0.750331
0	H	0.832172	0.377621	0.280883
0	H	0.678582	0.69272	0.794195
0	H	0.184425	0.877327	0.240067
0	H	0.316769	0.195982	0.747178
0	C	0.910872	0.475818	0.320217
0	C	0.589945	0.593913	0.830849
0	C	0.106396	0.974571	0.19881
0	C	0.410499	0.104474	0.70007
0	C	0.978129	0.445963	0.374679
0	C	0.520666	0.622277	0.885594
0	C	0.0378826	0.943265	0.145176
0	C	0.47312	0.140892	0.647997
0	H	0.971612	0.390013	0.38016
0	H	0.525545	0.678094	0.89201
0	H	0.0430228	0.887155	0.140937
0	H	0.459717	0.197003	0.646835
0	C	0.0501308	0.487151	0.418705
0	C	0.448443	0.579824	0.928627
0	C	0.966198	0.983331	0.100341
0	C	0.549771	0.10571	0.601002
0	H	0.103901	0.46501	0.459999
0	H	0.392175	0.60109	0.969913
0	H	0.910202	0.96014	0.0598006
0	H	0.600146	0.132956	0.561593
0	C	0.0577429	0.560226	0.410673
0	C	0.443897	0.506789	0.919775
0	C	0.961672	0.0566983	0.106444
0	C	0.566286	0.0322499	0.603147
0	H	0.11772	0.59162	0.446227
0	H	0.385706	0.473957	0.954748
0	H	0.904173	0.0874336	0.0698409
0	H	0.630836	0.00531332	0.565787
0	C	0.992771	0.589919	0.359019
0	C	0.510127	0.478412	0.86782
0	C	0.0270625	0.0876446	0.157468
0	C	0.504112	0.996278	0.652001
0	H	0.998167	0.645862	0.352425
0	H	0.507575	0.422499	0.860937
0	H	0.0238336	0.143795	0.162817
0	H	0.51363	0.939994	0.653977
0	C	0.91772	0.548566	0.311987
0	C	0.582681	0.521346	0.821343
0	C	0.10025	0.0475142	0.205567
0	C	0.426361	0.0313756	0.702266
0	C	0.856183	0.654422	0.249739
0	C	0.643708	0.417046	0.75815
0	C	0.159062	0.154949	0.266291
0	C	0.374245	0.91862	0.755958
0	C	0.702315	0.694955	0.260304
0	C	0.798104	0.377497	0.77007
0	C	0.313528	0.195236	0.255937
0	C	0.217683	0.879703	0.745217
0	C	0.708358	0.76773	0.257955
0	C	0.792661	0.304758	0.771827
0	C	0.307487	0.268032	0.257472
0	C	0.221643	0.806925	0.743947
0	C	0.868043	0.80141	0.24413
0	C	0.633136	0.270147	0.759645
0	C	0.147342	0.302015	0.270139
0	C	0.382618	0.771871	0.752808
0	H	0.872483	0.858125	0.242563
0	H	0.628463	0.213439	0.761531
0	H	0.142971	0.35877	0.271096
0	H	0.386044	0.715122	0.750835
0	C	0.020618	0.763342	0.232588
0	C	0.480848	0.307317	0.74541
0	C	0.994301	0.264144	0.281402
0	C	0.537641	0.808496	0.764145
0	H	0.146741	0.788716	0.222213
0	H	0.355196	0.280946	0.735965
0	H	0.867883	0.289761	0.291002
0	H	0.663835	0.781856	0.771462
0	C	0.0142428	0.690346	0.235538
0	C	0.486302	0.380367	0.744735
0	C	0.000485496	0.191084	0.279399
0	C	0.533119	0.88159	0.765918
0	C	0.737301	0.564626	0.151213
0	C	0.762054	0.508611	0.660406
0	C	0.273315	0.0673551	0.366825
0	C	0.26031	0.992066	0.860908
0	H	0.628548	0.602891	0.156104
0	H	0.867997	0.469093	0.66494
0	H	0.37991	0.106539	0.362196
0	H	0.148811	0.955689	0.852695
0	H	0.851131	0.588223	0.127112
0	H	0.646997	0.486658	0.635748
0	H	0.156817	0.0900664	0.39013
0	H	0.377642	0.963566	0.878295
0	C	0.608068	0.52759	0.0567378
0	C	0.894667	0.544913	0.566541
0	C	0.402018	0.0320354	0.462092
0	C	0.155343	0.00667652	0.96261
0	H	0.515462	0.571029	0.0602449
0	H	0.985054	0.500763	0.570015
0	H	0.493034	0.0759794	0.458666
0	H	0.0183898	0.987912	0.958427
0	H	0.536984	0.480994	0.0410965
0	H	0.968147	0.590731	0.55062
0	H	0.474662	0.986003	0.478138
0	H	0.163118	0.0482881	0.99622
0	H	0.720512	0.540076	0.0273695
0	H	0.780982	0.533227	0.537458
0	H	0.287952	0.0440949	0.490908
0	H	0.247002	0.964336	0.973614
0	O	0.551742	0.659158	0.273629
0	O	0.948337	0.414559	0.781255
0	O	0.464516	0.159054	0.244023
0	O	0.0681076	0.917809	0.73584
0	O	0.170951	0.658896	0.22349
0	O	0.330394	0.411311	0.73037
0	O	0.843549	0.159818	0.291481
0	O	0.691106	0.911902	0.778614
0	H	0.164882	0.604798	0.221685
0	H	0.337361	0.465227	0.72693
0	H	0.849196	0.105672	0.29335
0	H	0.686174	0.965664	0.783788
0	O	0.670549	0.506902	0.115565
0	O	0.833468	0.566134	0.62547
0	O	0.341708	0.010541	0.403209
0	O	0.203263	0.0409433	0.90683
0	H	0.438566	0.687038	0.271071
0	H	0.062161	0.387166	0.778631
0	H	0.577612	0.18711	0.24572
0	H	0.953532	0.890448	0.736676
0	Br	0.747944	0.224415	0.111123
0	Br	0.759658	0.851345	0.604908
0	Br	0.263697	0.727314	0.411168
0	Br	0.280266	0.32137	0.919213
0	C	0.119638	0.460459	0.0721032
0	C	0.392854	0.611483	0.576067
0	C	0.892742	0.965711	0.444074
0	C	0.644612	0.0823088	0.951491
0	C	0.190628	0.503534	0.115788
0	C	0.321088	0.568275	0.61952
0	C	0.818157	0.00773869	0.400305
0	C	0.717318	0.0451721	0.904088
0	C	0.193378	0.576717	0.106798
0	C	0.314814	0.495193	0.609879
0	C	0.809581	0.080933	0.409123
0	C	0.719003	0.971291	0.905746
0	H	0.249724	0.609089	0.142542
0	H	0.259998	0.462687	0.645786
0	H	0.751709	0.112517	0.373127
0	H	0.774352	0.943603	0.867012
0	C	0.128723	0.605563	0.0549544
0	C	0.373956	0.466681	0.557116
0	C	0.869827	0.110676	0.461212
0	C	0.654956	0.936001	0.954635
0	H	0.129961	0.661411	0.0483333
0	H	0.368175	0.411007	0.549685
0	H	0.862824	0.166454	0.467859
0	H	0.657413	0.879673	0.955964
0	C	0.0606478	0.562366	0.00801837
0	C	0.443345	0.509977	0.510455
0	C	0.941804	0.0685453	0.508239
0	C	0.585638	0.972864	0.00529791
0	C	0.00224242	0.59144	0.952137
0	C	0.497552	0.481516	0.453838
0	C	0.99734	0.0981892	0.564263
0	C	0.52778	0.937013	0.0582386
0	H	0.0060658	0.647382	0.946501
0	H	0.487963	0.425821	0.447192
0	H	0.986858	0.153959	0.570186
0	H	0.535633	0.880763	0.0590641
0	C	0.945207	0.549231	0.906458
0	C	0.558532	0.523741	0.408694
0	C	0.0610632	0.0569444	0.609652
0	C	0.466083	0.973147	0.107116
0	H	0.902442	0.570758	0.863416
0	H	0.598862	0.502666	0.365184
0	H	0.103054	0.0788762	0.652655
0	H	0.423918	0.94649	0.148027
0	C	0.938722	0.476148	0.914676
0	C	0.573689	0.596373	0.418368
0	C	0.076867	0.984167	0.600994
0	C	0.454093	0.0467357	0.105071
0	H	0.892169	0.444272	0.877137
0	H	0.623046	0.628628	0.381506
0	H	0.127913	0.95291	0.638279
0	H	0.402782	0.0741604	0.144497
0	C	0.989966	0.447214	0.96832
0	C	0.527542	0.624422	0.472923
0	C	0.0291753	0.954955	0.547075
0	C	0.505229	0.0820586	0.054386
0	H	0.982516	0.391281	0.975136
0	H	0.545376	0.679886	0.481516
0	H	0.0474219	0.899367	0.539258
0	H	0.493083	0.13821	0.0520506
0	C	0.0550893	0.489584	0.0164484
0	C	0.456199	0.582394	0.520178
0	C	0.956187	0.996019	0.499447
0	C	0.576942	0.0462139	0.00341777
0	C	0.117255	0.384522	0.079166
0	C	0.393928	0.687518	0.58299
0	C	0.896606	0.889628	0.437884
0	C	0.642989	0.158717	0.9506
0	C	0.960057	0.346926	0.0913235
0	C	0.549132	0.726293	0.595297
0	C	0.0532956	0.851196	0.427158
0	C	0.486925	0.197063	0.938626
0	C	0.961937	0.273907	0.0943212
0	C	0.546687	0.799407	0.594196
0	C	0.0507689	0.778073	0.425661
0	C	0.491097	0.270054	0.935852
0	C	0.120286	0.237739	0.0852233
0	C	0.387775	0.834747	0.583937
0	C	0.891977	0.742416	0.435109
0	C	0.651137	0.305474	0.944196
0	H	0.121445	0.181062	0.0861741
0	H	0.385805	0.891454	0.583025
0	H	0.890067	0.685733	0.435503
0	H	0.65452	0.36205	0.941417
0	C	0.278181	0.273167	0.074778
0	C	0.230856	0.798164	0.574844
0	C	0.73454	0.778693	0.44422
0	C	0.807066	0.269207	0.95604
0	H	0.402192	0.245145	0.0678963
0	H	0.105753	0.825614	0.566996
0	H	0.609752	0.750974	0.451759
0	H	0.931881	0.29692	0.962907
0	C	0.275747	0.345893	0.072003
0	C	0.234849	0.725468	0.574441
0	C	0.737334	0.851378	0.444883
0	C	0.801629	0.196555	0.959879
0	C	0.279132	0.475257	0.171189
0	C	0.234659	0.596966	0.675139
0	C	0.730365	0.978303	0.345225
0	C	0.80988	0.0808853	0.85284
0	H	0.235705	0.422134	0.182587
0	H	0.281734	0.649699	0.686539
0	H	0.771122	0.924482	0.335274
0	H	0.783511	0.13722	0.851134
0	H	0.426337	0.476274	0.16505
0	H	0.0873577	0.597337	0.669137
0	H	0.583048	0.980715	0.350695
0	H	0.955944	0.0718876	0.856039
0	C	0.358091	0.51753	0.270296
0	C	0.154129	0.557577	0.774744
0	C	0.65796	0.0174712	0.244754
0	C	0.854046	0.0718249	0.745932
0	H	0.400317	0.464731	0.280644
0	H	0.118427	0.611319	0.784434
0	H	0.61817	0.964368	0.234519
0	H	0.781338	0.0511555	0.70698
0	H	0.284894	0.539694	0.308561
0	H	0.225605	0.534962	0.813187
0	H	0.732004	0.039663	0.206704
0	H	0.984594	0.0469253	0.750526
0	H	0.471657	0.550225	0.257673
0	H	0.0366453	0.526635	0.762906
0	H	0.542384	0.0495069	0.25656
0	H	0.86562	0.128456	0.742418
0	O	0.798763	0.376372	0.100457
0	O	0.708611	0.697762	0.608935
0	O	0.21503	0.880143	0.417957
0	O	0.326367	0.167203	0.929047
0	H	0.80037	0.43022	0.102807
0	H	0.707204	0.644004	0.612705
0	H	0.214011	0.93404	0.415267
0	H	0.330912	0.113561	0.925001
0	O	0.427	0.382704	0.0613781
0	O	0.0839387	0.687999	0.564883
0	O	0.585676	0.888683	0.453022
0	O	0.949513	0.158479	0.97286
0	H	0.538921	0.354181	0.0661169
0	H	0.971782	0.716246	0.570137
0	H	0.473839	0.859875	0.449469
0	H	0.0636502	0.185295	0.967447
0	O	0.227412	0.517893	0.222455
0	O	0.283336	0.553956	0.726496
0	O	0.78655	0.0188787	0.293237
0	O	0.741931	0.0528758	0.79635
