#******************************************
#
# CIF file created by Zeo++
# Zeo++ is an open source package to
# analyze microporous materials
#
#*******************************************

_cell_length_a		21.5328(0)
_cell_length_b		7.44406(0)
_cell_length_c		13.531(0)
_cell_angle_alpha		90(0)
_cell_angle_beta		90.1364(0)
_cell_angle_gamma		90(0)

_symmetry_space_group_name_H-M		'P1'
_symmetry_Int_Tables_number		1
_symmetry_cell_setting		Monoclinic

loop_
_symmetry_equiv_pos_as_xyz
'+x,+y,+z'

loop_
_atom_site_label
_atom_site_type_symbol
_atom_site_fract_x
_atom_site_fract_y
_atom_site_fract_z
0	Br	0.998193	0.990197	0.630962
0	Br	0.997952	0.991078	0.406589
0	Br	0.500396	0.497007	0.630697
0	Br	0.495891	0.497697	0.407116
0	O	0.729972	0.00831822	0.727579
0	O	0.266386	0.00808175	0.30972
0	O	0.235276	0.502912	0.726092
0	O	0.761195	0.502144	0.311261
0	O	0.65665	0.145231	0.410297
0	O	0.339535	0.14557	0.627106
0	O	0.16141	0.647956	0.410109
0	O	0.834697	0.648296	0.627416
0	O	0.799226	0.106325	0.0227387
0	O	0.196792	0.106559	0.0145681
0	O	0.303822	0.616423	0.0231671
0	O	0.692149	0.616306	0.0142071
0	O	0.883284	0.247986	0.0855719
0	O	0.112718	0.24805	0.951753
0	O	0.385125	0.776344	0.0820252
0	O	0.61087	0.776506	0.955489
0	C	0.685959	0.025622	0.670707
0	C	0.310351	0.0259569	0.366644
0	C	0.191212	0.523395	0.669652
0	C	0.805157	0.523445	0.367808
0	C	0.622272	0.0610828	0.713537
0	C	0.374013	0.0622026	0.323917
0	C	0.127914	0.561888	0.713067
0	C	0.86845	0.562607	0.324557
0	C	0.568243	0.0379906	0.641362
0	C	0.428031	0.0386805	0.396071
0	C	0.0734974	0.539838	0.64152
0	C	0.922825	0.540497	0.396162
0	C	0.582616	0.126981	0.542061
0	C	0.413664	0.127364	0.495464
0	C	0.0875013	0.629552	0.542262
0	C	0.908735	0.630065	0.49544
0	C	0.638183	0.0347439	0.494847
0	C	0.358048	0.035124	0.542556
0	C	0.142802	0.536941	0.494303
0	C	0.853396	0.537358	0.543247
0	C	0.625145	0.848395	0.447718
0	C	0.371055	0.848745	0.589677
0	C	0.129211	0.351286	0.446616
0	C	0.86699	0.351684	0.590938
0	C	0.66738	0.844343	0.356329
0	C	0.328773	0.844678	0.681023
0	C	0.171183	0.347379	0.354876
0	C	0.824933	0.347666	0.682568
0	C	0.69969	0.0294531	0.35434
0	C	0.296463	0.0297924	0.683001
0	C	0.203921	0.531804	0.353302
0	C	0.792171	0.532039	0.684128
0	C	0.760171	0.0304419	0.414333
0	C	0.236018	0.0307552	0.622937
0	C	0.264565	0.530961	0.412831
0	C	0.731576	0.531187	0.624492
0	C	0.694468	0.0221448	0.562676
0	C	0.301795	0.0225398	0.474671
0	C	0.199304	0.52163	0.561561
0	C	0.796952	0.52192	0.475884
0	C	0.816066	0.0633225	0.374031
0	C	0.180089	0.0634535	0.663168
0	C	0.320383	0.564453	0.372511
0	C	0.675724	0.564659	0.664746
0	C	0.826486	0.107166	0.267398
0	C	0.169581	0.107171	0.769797
0	C	0.33079	0.609086	0.265992
0	C	0.665245	0.609024	0.771284
0	C	0.770144	0.0588882	0.202716
0	C	0.22591	0.0591071	0.834565
0	C	0.274138	0.563302	0.20149
0	C	0.721877	0.5633	0.835865
0	C	0.70889	0.11995	0.254785
0	C	0.28717	0.120287	0.782541
0	C	0.213009	0.623641	0.254147
0	C	0.783018	0.623778	0.783289
0	C	0.659341	0.0995881	0.173314
0	C	0.336683	0.100002	0.864066
0	C	0.163381	0.604596	0.172652
0	C	0.832624	0.604731	0.864825
0	C	0.693717	0.14878	0.0767833
0	C	0.302266	0.149414	0.960521
0	C	0.197706	0.656712	0.0764793
0	C	0.798254	0.65676	0.960968
0	C	0.762339	0.172345	0.106645
0	C	0.233639	0.172685	0.930623
0	C	0.266278	0.680162	0.106719
0	C	0.72969	0.680136	0.930664
0	C	0.772348	0.858875	0.178153
0	C	0.223761	0.859143	0.859146
0	C	0.275905	0.363933	0.17511
0	C	0.72013	0.363915	0.862215
0	C	0.751532	0.0108633	0.521544
0	C	0.24471	0.0111799	0.515737
0	C	0.256194	0.509037	0.51997
0	C	0.740023	0.509482	0.517361
0	C	0.859391	0.165269	0.0177002
0	C	0.136615	0.165328	0.019616
0	C	0.36285	0.684069	0.0165569
0	C	0.633139	0.684018	0.0208764
0	C	0.889546	0.117915	0.922913
0	C	0.106447	0.117889	0.114389
0	C	0.3935	0.632945	0.922752
0	C	0.602504	0.63278	0.114669
0	C	0.952376	0.166723	0.912798
0	C	0.0436394	0.166725	0.124498
0	C	0.455009	0.691955	0.909321
0	C	0.541035	0.69201	0.128238
0	C	0.984336	0.127797	0.826225
0	C	0.0116771	0.127917	0.211097
0	C	0.486575	0.651167	0.82252
0	C	0.509529	0.651306	0.215098
0	C	0.952697	0.0389685	0.750205
0	C	0.0433298	0.0391842	0.287146
0	C	0.456004	0.549553	0.750349
0	C	0.540117	0.549602	0.287222
0	C	0.890679	0.988919	0.758264
0	C	0.105322	0.988925	0.279041
0	C	0.395405	0.488465	0.762007
0	C	0.600656	0.488148	0.27539
0	C	0.858458	0.0319436	0.845232
0	C	0.137529	0.0318078	0.192043
0	C	0.36348	0.533699	0.848809
0	C	0.632518	0.533248	0.188505
0	H	0.622553	0.200665	0.743404
0	H	0.373638	0.202121	0.294528
0	H	0.129021	0.70203	0.742128
0	H	0.86724	0.702925	0.295757
0	H	0.615747	0.974145	0.779998
0	H	0.380626	0.976109	0.257171
0	H	0.121236	0.476186	0.779932
0	H	0.875255	0.477404	0.257518
0	H	0.525462	0.0966666	0.673606
0	H	0.470825	0.0974164	0.36391
0	H	0.0309688	0.598661	0.67448
0	H	0.965359	0.59943	0.363307
0	H	0.557995	0.893337	0.630469
0	H	0.438236	0.893971	0.406832
0	H	0.0631037	0.395294	0.630425
0	H	0.933232	0.395961	0.407211
0	H	0.976281	0.236406	0.973869
0	H	0.0197238	0.236328	0.0634074
0	H	0.478173	0.77058	0.967682
0	H	0.517865	0.770729	0.0699233
0	H	0.593654	0.271463	0.551443
0	H	0.402679	0.271882	0.486223
0	H	0.0985513	0.773974	0.552004
0	H	0.897699	0.774509	0.485745
0	H	0.541866	0.122536	0.491964
0	H	0.454405	0.122617	0.545601
0	H	0.0465912	0.625657	0.492555
0	H	0.949616	0.626072	0.545227
0	H	0.575872	0.835114	0.426633
0	H	0.420315	0.835363	0.610821
0	H	0.0798437	0.338756	0.425963
0	H	0.91634	0.339194	0.611706
0	H	0.808753	0.999145	0.85131
0	H	0.187217	0.998837	0.185927
0	H	0.314711	0.49276	0.85756
0	H	0.681245	0.49202	0.179603
0	H	0.635296	0.738104	0.499555
0	H	0.360903	0.738496	0.537826
0	H	0.139345	0.240221	0.497943
0	H	0.856926	0.240694	0.539529
0	H	0.793112	0.991348	0.567345
0	H	0.203159	0.991693	0.469859
0	H	0.297835	0.486826	0.565295
0	H	0.698419	0.487184	0.471956
0	H	0.701262	0.732729	0.358683
0	H	0.294947	0.733121	0.678634
0	H	0.204757	0.235298	0.356637
0	H	0.79131	0.235538	0.680646
0	H	0.639911	0.825302	0.288027
0	H	0.356228	0.825668	0.749384
0	H	0.143429	0.329559	0.286708
0	H	0.852604	0.32972	0.750771
0	H	0.858196	0.0644679	0.41942
0	H	0.137985	0.0645206	0.617725
0	H	0.362442	0.565437	0.418006
0	H	0.633698	0.565714	0.619186
0	H	0.713353	0.268113	0.272766
0	H	0.282691	0.26843	0.764545
0	H	0.217575	0.771613	0.272787
0	H	0.778441	0.771758	0.764685
0	H	0.618737	0.186033	0.186501
0	H	0.377291	0.186458	0.850874
0	H	0.122682	0.690301	0.18659
0	H	0.873311	0.690527	0.850929
0	H	0.64105	0.960882	0.170696
0	H	0.354955	0.961321	0.866763
0	H	0.145343	0.465689	0.168915
0	H	0.850682	0.465836	0.868529
0	H	0.675186	0.272865	0.0425956
0	H	0.320753	0.273627	0.994598
0	H	0.17911	0.781763	0.0435504
0	H	0.816823	0.781812	0.99391
0	H	0.688732	0.0422054	0.0202721
0	H	0.307275	0.0429631	0.0170727
0	H	0.192944	0.551587	0.0192519
0	H	0.803004	0.551634	0.0181604
0	H	0.837432	0.253122	0.25971
0	H	0.158517	0.253053	0.777516
0	H	0.342327	0.754729	0.258603
0	H	0.653625	0.754613	0.77876
0	H	0.868859	0.0392212	0.239437
0	H	0.127224	0.0389934	0.797657
0	H	0.372734	0.539207	0.237813
0	H	0.623313	0.538891	0.799323
0	H	0.813392	0.82715	0.133503
0	H	0.182559	0.827139	0.903369
0	H	0.315771	0.333691	0.127418
0	H	0.680163	0.33349	0.909654
0	H	0.773478	0.775489	0.244957
0	H	0.222973	0.775721	0.792392
0	H	0.278807	0.278554	0.241011
0	H	0.717399	0.278595	0.796281
0	H	0.731826	0.813871	0.135449
0	H	0.264148	0.814375	0.902291
0	H	0.234367	0.319691	0.134683
0	H	0.761593	0.319753	0.902871
0	H	0.866579	0.915858	0.698723
0	H	0.12943	0.91582	0.338573
0	H	0.372222	0.406098	0.705157
0	H	0.623851	0.405634	0.332158
0	H	0.0331378	0.16681	0.819374
0	H	0.962885	0.16693	0.217958
0	H	0.534277	0.69839	0.812677
0	H	0.461854	0.698635	0.22506
0	H	0.775474	0.315262	0.118182
0	H	0.220444	0.315548	0.919031
0	H	0.27901	0.82307	0.119812
0	H	0.716953	0.823045	0.917584
