#******************************************
#
# CIF file created by Zeo++
# Zeo++ is an open source package to
# analyze microporous materials
#
#*******************************************

_cell_length_a		9.24506(0)
_cell_length_b		17.1675(0)
_cell_length_c		26.2752(0)
_cell_angle_alpha		90(0)
_cell_angle_beta		90(0)
_cell_angle_gamma		90(0)

_symmetry_space_group_name_H-M		'P1'
_symmetry_Int_Tables_number		1
_symmetry_cell_setting		Monoclinic

loop_
_symmetry_equiv_pos_as_xyz
'+x,+y,+z'

loop_
_atom_site_label
_atom_site_type_symbol
_atom_site_fract_x
_atom_site_fract_y
_atom_site_fract_z
0	C	0.260146	0.932024	0.733432
0	C	0.274216	0.0850248	0.243803
0	C	0.765762	0.436987	0.720563
0	C	0.768111	0.58464	0.231195
0	C	0.296776	0.00644542	0.71564
0	C	0.234984	0.00877945	0.23063
0	C	0.725774	0.513558	0.73253
0	C	0.805147	0.509349	0.247167
0	H	0.318425	0.0531112	0.742782
0	H	0.216645	0.965548	0.260405
0	H	0.707759	0.555738	0.702099
0	H	0.826279	0.464191	0.218903
0	C	0.308259	0.0199355	0.663337
0	C	0.21619	0.989052	0.179441
0	C	0.705967	0.534998	0.783383
0	C	0.817338	0.493072	0.299116
0	H	0.338153	0.0775176	0.649353
0	H	0.183267	0.930158	0.16912
0	H	0.672323	0.594159	0.792766
0	H	0.847606	0.43476	0.311709
0	C	0.283831	0.959452	0.62872
0	C	0.236359	0.0449891	0.141389
0	C	0.725888	0.48042	0.822273
0	C	0.793214	0.551646	0.335129
0	H	0.292476	0.97019	0.587871
0	H	0.22265	0.029335	0.101435
0	H	0.711787	0.497445	0.861953
0	H	0.801919	0.538687	0.375689
0	C	0.247591	0.885234	0.646533
0	C	0.274724	0.121138	0.154623
0	C	0.764199	0.40379	0.810252
0	C	0.757104	0.626854	0.319115
0	H	0.22938	0.837681	0.619731
0	H	0.288179	0.165313	0.125178
0	H	0.776992	0.360646	0.840373
0	H	0.739583	0.672929	0.347046
0	C	0.235164	0.871445	0.69879
0	C	0.294189	0.141183	0.205727
0	C	0.784555	0.382051	0.759499
0	C	0.743907	0.643403	0.267236
0	H	0.203638	0.813735	0.712427
0	H	0.326146	0.200487	0.215783
0	H	0.816257	0.322386	0.750425
0	H	0.712053	0.701743	0.254975
0	C	0.259445	0.915315	0.789397
0	C	0.281828	0.109012	0.29853
0	C	0.777524	0.411317	0.666262
0	C	0.764088	0.604171	0.175645
0	C	0.112863	0.920571	0.817544
0	C	0.430383	0.104912	0.325452
0	C	0.927961	0.41502	0.640574
0	C	0.615775	0.59985	0.148549
0	C	0.0510456	0.00266162	0.80905
0	C	0.492364	0.022667	0.317922
0	C	0.989645	0.497291	0.648153
0	C	0.552044	0.518296	0.157488
0	H	0.031949	0.0147018	0.76865
0	H	0.509576	0.0091579	0.277595
0	H	0.00499041	0.51109	0.688539
0	H	0.534007	0.506604	0.198001
0	H	0.123358	0.0477345	0.824327
0	H	0.420846	0.977984	0.334209
0	H	0.918808	0.54177	0.631272
0	H	0.622608	0.472635	0.141996
0	H	0.947193	0.00956001	0.828787
0	H	0.597265	0.0166302	0.337064
0	H	0.0954169	0.503154	0.629614
0	H	0.447149	0.512211	0.138316
0	C	0.0119821	0.858733	0.794888
0	C	0.529088	0.166233	0.300926
0	C	0.0248287	0.35394	0.666231
0	C	0.517624	0.662434	0.171799
0	H	0.0567113	0.799741	0.799532
0	H	0.48457	0.225224	0.305947
0	H	0.981426	0.294843	0.660617
0	H	0.563193	0.721131	0.166593
0	H	0.991496	0.868093	0.754256
0	H	0.544138	0.156455	0.260024
0	H	0.0358629	0.363664	0.707307
0	H	0.499406	0.653566	0.212604
0	H	0.905911	0.859492	0.81376
0	H	0.637281	0.165285	0.318168
0	H	0.13457	0.35525	0.650257
0	H	0.410507	0.662072	0.153663
0	C	0.131214	0.906167	0.874906
0	C	0.415605	0.121414	0.382711
0	C	0.917078	0.397864	0.583274
0	C	0.631259	0.613992	0.0910558
0	H	0.205828	0.948429	0.892032
0	H	0.340842	0.0803067	0.400909
0	H	0.843223	0.438553	0.564241
0	H	0.703475	0.57106	0.0734157
0	H	0.176648	0.848242	0.882451
0	H	0.372059	0.179954	0.389686
0	H	0.874457	0.339147	0.576216
0	H	0.677844	0.67156	0.0831812
0	H	0.0276395	0.910354	0.894839
0	H	0.52005	0.117157	0.402047
0	H	0.0226622	0.402162	0.564739
0	H	0.526401	0.61071	0.071903
0	N	0.374336	0.896136	0.814489
0	N	0.170741	0.134011	0.323596
0	N	0.669008	0.384892	0.640445
0	N	0.876946	0.625192	0.15009
0	C	0.517564	0.894768	0.789605
0	C	0.0255216	0.134802	0.300268
0	C	0.521912	0.383771	0.662207
0	C	0.021792	0.626094	0.173805
0	H	0.518571	0.91808	0.749256
0	H	0.0213168	0.112542	0.259744
0	H	0.514317	0.405112	0.702863
0	H	0.0253312	0.60304	0.214184
0	C	0.566178	0.810042	0.785375
0	C	0.973422	0.219173	0.299257
0	C	0.470316	0.299272	0.661481
0	C	0.0713879	0.710781	0.177038
0	O	0.495897	0.750251	0.788188
0	O	0.0225237	0.278569	0.317121
0	O	0.517663	0.241079	0.641557
0	O	0.00321181	0.770809	0.171565
0	C	0.772875	0.734435	0.757634
0	C	0.774607	0.293703	0.262988
0	C	0.272087	0.222897	0.69672
0	C	0.275956	0.787156	0.205611
0	H	0.690693	0.693931	0.743314
0	H	0.850348	0.341395	0.255435
0	H	0.346929	0.174734	0.70405
0	H	0.193093	0.82856	0.218241
0	H	0.828006	0.712032	0.791436
0	H	0.711554	0.304252	0.297566
0	H	0.211266	0.213809	0.661485
0	H	0.333271	0.807583	0.171713
0	H	0.849643	0.750966	0.727405
0	H	0.704357	0.281544	0.229998
0	H	0.199796	0.234001	0.729293
0	H	0.350616	0.772302	0.236824
0	O	0.708524	0.808838	0.771598
0	O	0.852342	0.220667	0.26878
0	O	0.350937	0.295895	0.692875
0	O	0.211951	0.712052	0.193039
0	C	0.623178	0.944832	0.821429
0	C	0.922173	0.083991	0.332573
0	C	0.421064	0.43501	0.62919
0	C	0.124807	0.575695	0.141174
0	H	0.61496	0.928463	0.862245
0	H	0.935882	0.0979152	0.373604
0	H	0.438129	0.421634	0.588217
0	H	0.114813	0.592425	0.100465
0	H	0.736573	0.93158	0.809923
0	H	0.808002	0.098853	0.323033
0	H	0.306287	0.419855	0.637535
0	H	0.238945	0.588218	0.152078
0	C	0.589312	0.029724	0.813812
0	C	0.951468	0.999159	0.322742
0	C	0.448821	0.519843	0.639572
0	C	0.0902793	0.490825	0.148528
0	C	0.510653	0.0706038	0.851133
0	C	0.0464119	0.957683	0.354669
0	C	0.547269	0.56155	0.60911
0	C	0.00972519	0.450586	0.111419
0	H	0.476983	0.0408536	0.885988
0	H	0.0992734	0.987626	0.386369
0	H	0.604165	0.531723	0.578232
0	H	0.973812	0.480888	0.0770503
0	C	0.473655	0.148357	0.843869
0	C	0.0740234	0.878937	0.346496
0	C	0.573417	0.640355	0.617686
0	C	0.974049	0.372543	0.118161
0	H	0.411727	0.181316	0.872004
0	H	0.148211	0.84589	0.370775
0	H	0.649768	0.673521	0.594316
0	H	0.910765	0.340063	0.090158
0	C	0.516586	0.184853	0.798451
0	C	0.0036613	0.842136	0.305742
0	C	0.498235	0.676967	0.65743
0	C	0.0205221	0.335098	0.162807
0	O	0.478121	0.262018	0.794403
0	O	0.0298306	0.763463	0.300333
0	O	0.524063	0.755527	0.663615
0	O	0.983838	0.25761	0.166237
0	H	0.47884	0.280966	0.758722
0	H	0.965083	0.739759	0.274552
0	H	0.458667	0.778485	0.689569
0	H	0.992124	0.237014	0.20133
0	C	0.594305	0.145643	0.760548
0	C	0.912978	0.882543	0.272205
0	C	0.403027	0.636417	0.689315
0	C	0.0993878	0.373754	0.200651
0	H	0.626165	0.174445	0.725409
0	H	0.865625	0.853356	0.23936
0	H	0.351067	0.665646	0.721256
0	H	0.133229	0.344309	0.235355
0	C	0.631007	0.0676771	0.768907
0	C	0.887054	0.961481	0.281165
0	C	0.378649	0.557444	0.680014
0	C	0.134468	0.452055	0.192837
0	H	0.692142	0.0364332	0.739723
0	H	0.816517	0.993608	0.255228
0	H	0.304881	0.525221	0.704781
0	H	0.196424	0.482903	0.221977
0	C	0.0732232	0.423521	0.952733
0	C	0.456882	0.598368	0.458447
0	C	0.951899	0.923625	0.506224
0	C	0.574965	0.0930131	0.0109515
0	C	0.0679787	0.500686	0.935284
0	C	0.464676	0.520933	0.441635
0	C	0.957713	0.00120675	0.522835
0	C	0.569709	0.0160824	0.028828
0	H	0.159795	0.525281	0.914759
0	H	0.372755	0.494659	0.422053
0	H	0.864639	0.0272691	0.541876
0	H	0.661689	0.991631	0.0493635
0	C	0.944675	0.545789	0.943984
0	C	0.590658	0.477741	0.44976
0	C	0.0832553	0.0449287	0.515175
0	C	0.446091	0.971022	0.0205406
0	H	0.941152	0.6058	0.930592
0	H	0.596102	0.417445	0.436999
0	H	0.0871379	0.105321	0.527792
0	H	0.442536	0.91119	0.0342194
0	C	0.826238	0.514047	0.96985
0	C	0.709333	0.511672	0.474302
0	C	0.203377	0.0114326	0.491278
0	C	0.327382	0.00248888	0.994683
0	H	0.73081	0.549572	0.976998
0	H	0.806903	0.477601	0.480941
0	H	0.300522	0.0460176	0.484964
0	H	0.231765	0.966955	0.987862
0	C	0.830711	0.4368	0.986639
0	C	0.702348	0.589188	0.490424
0	C	0.198342	0.933759	0.475396
0	C	0.33191	0.0794883	0.977425
0	H	0.738033	0.411669	0.00655209
0	H	0.794754	0.616119	0.509715
0	H	0.291955	0.90722	0.456666
0	H	0.239143	0.104449	0.95747
0	C	0.953823	0.391432	0.977972
0	C	0.576468	0.632568	0.482362
0	C	0.0729421	0.889791	0.483015
0	C	0.455308	0.124815	0.985679
0	H	0.956282	0.330511	0.990925
0	H	0.572009	0.69367	0.494952
0	H	0.0699077	0.828558	0.470659
0	H	0.457714	0.185528	0.972381
0	C	0.205414	0.375128	0.943454
0	C	0.32155	0.644514	0.4501
0	C	0.817021	0.876889	0.513962
0	C	0.70739	0.141406	0.0197474
0	C	0.317477	0.371966	0.987314
0	C	0.21195	0.646356	0.4948
0	C	0.70832	0.875087	0.469013
0	C	0.818916	0.144041	0.975699
0	C	0.347185	0.455824	0.00529883
0	C	0.190566	0.562778	0.514618
0	C	0.687632	0.95847	0.448807
0	C	0.848443	0.0599937	0.958065
0	H	0.250294	0.483324	0.0212219
0	H	0.289778	0.539231	0.531515
0	H	0.787179	0.981805	0.432047
0	H	0.751184	0.032158	0.942683
0	H	0.386495	0.492487	0.974177
0	H	0.156525	0.523269	0.484194
0	H	0.652983	0.998296	0.478965
0	H	0.888776	0.0237652	0.989253
0	H	0.429973	0.456109	0.0352596
0	H	0.106595	0.561344	0.544142
0	H	0.604161	0.95961	0.419088
0	H	0.930331	0.0594315	0.927796
0	C	0.253407	0.323316	0.0308551
0	C	0.274751	0.698485	0.536921
0	C	0.771907	0.822456	0.427304
0	C	0.754052	0.192256	0.932092
0	H	0.222519	0.264893	0.0181139
0	H	0.300532	0.7569	0.522752
0	H	0.796639	0.764083	0.441784
0	H	0.723071	0.250742	0.944699
0	H	0.157965	0.350928	0.0477379
0	H	0.373865	0.673818	0.553337
0	H	0.871732	0.846705	0.411164
0	H	0.658444	0.164396	0.915517
0	H	0.333307	0.316461	0.061495
0	H	0.197099	0.704997	0.568163
0	H	0.694998	0.815875	0.395834
0	H	0.833408	0.198935	0.901244
0	C	0.460621	0.334998	0.970022
0	C	0.0650145	0.678741	0.477564
0	C	0.560892	0.843092	0.486044
0	C	0.962225	0.181237	0.992621
0	H	0.509153	0.366555	0.938128
0	H	0.0204519	0.645571	0.445619
0	H	0.515143	0.877196	0.517346
0	H	0.0118622	0.149467	0.0242164
0	H	0.444743	0.27443	0.957151
0	H	0.0746026	0.739602	0.464387
0	H	0.57029	0.782642	0.500046
0	H	0.946044	0.241618	0.00587227
0	H	0.538751	0.33367	0.00159194
0	H	0.985902	0.677659	0.508827
0	H	0.482944	0.843044	0.45441
0	H	0.0393601	0.183167	0.960765
0	N	0.231608	0.337005	0.902163
0	N	0.290274	0.682272	0.409062
0	N	0.785503	0.838217	0.554604
0	N	0.73425	0.180132	0.0607633
0	C	0.136979	0.342181	0.856978
0	C	0.383538	0.680607	0.363511
0	C	0.87828	0.839136	0.600254
0	C	0.640064	0.175844	0.106079
0	H	0.0368369	0.378948	0.862362
0	H	0.487215	0.646695	0.368253
0	H	0.982508	0.872687	0.595766
0	H	0.539821	0.139041	0.101067
0	C	0.082907	0.260087	0.844606
0	C	0.426444	0.764601	0.351092
0	C	0.919995	0.754814	0.61218
0	C	0.586233	0.258186	0.117797
0	O	0.0743633	0.202274	0.870417
0	O	0.407243	0.825297	0.3731
0	O	0.900775	0.694508	0.58972
0	O	0.576707	0.315266	0.0913283
0	C	0.953964	0.191572	0.77764
0	C	0.570059	0.834078	0.288335
0	C	0.0610335	0.684202	0.675081
0	C	0.458618	0.328167	0.184473
0	H	0.870461	0.174197	0.805017
0	H	0.651853	0.85379	0.315654
0	H	0.138667	0.662237	0.647007
0	H	0.376888	0.346003	0.156575
0	H	0.0324988	0.144704	0.772271
0	H	0.48623	0.878362	0.283286
0	H	0.975301	0.641551	0.681888
0	H	0.537742	0.374562	0.190464
0	H	0.905947	0.210427	0.741391
0	H	0.619115	0.81706	0.251804
0	H	0.115088	0.70169	0.710672
0	H	0.408449	0.309353	0.220403
0	O	0.0285037	0.260909	0.795282
0	O	0.505629	0.762097	0.306178
0	O	0.998342	0.756585	0.657244
0	O	0.53314	0.258572	0.167278
0	C	0.228956	0.376073	0.813057
0	C	0.295494	0.645599	0.3189
0	C	0.790483	0.874055	0.644968
0	C	0.732263	0.142491	0.150121
0	H	0.342704	0.35506	0.817608
0	H	0.182094	0.667803	0.321008
0	H	0.677261	0.851617	0.643076
0	H	0.845491	0.164397	0.145875
0	H	0.192215	0.351605	0.77603
0	H	0.33842	0.667939	0.282095
0	H	0.834085	0.8519	0.681714
0	H	0.694079	0.166388	0.187123
0	C	0.223712	0.463409	0.810982
0	C	0.299229	0.558176	0.319038
0	C	0.794027	0.961476	0.64442
0	C	0.728879	0.0550887	0.151701
0	C	0.343335	0.507985	0.826374
0	C	0.180432	0.515342	0.337045
0	C	0.675465	0.0040873	0.626022
0	C	0.848309	0.0112914	0.135257
0	H	0.438743	0.478982	0.841943
0	H	0.0861105	0.54592	0.352127
0	H	0.580849	0.973245	0.611397
0	H	0.942686	0.0410287	0.119502
0	C	0.342281	0.588887	0.821401
0	C	0.181386	0.434133	0.335697
0	C	0.677221	0.0853478	0.6263
0	C	0.848208	0.930239	0.13931
0	H	0.435772	0.623847	0.83206
0	H	0.0888807	0.400389	0.3489
0	H	0.585076	0.119021	0.612688
0	H	0.94141	0.895732	0.127774
0	C	0.218608	0.624897	0.80128
0	C	0.303927	0.396047	0.316361
0	C	0.800308	0.123688	0.644977
0	C	0.725699	0.893349	0.159612
0	O	0.211648	0.703783	0.792583
0	O	0.312312	0.316454	0.312596
0	O	0.810085	0.203344	0.647441
0	O	0.719194	0.814318	0.167301
0	H	0.306891	0.730857	0.80136
0	H	0.22112	0.29007	0.326074
0	H	0.719286	0.229735	0.633754
0	H	0.814134	0.787442	0.157857
0	C	0.0955167	0.582005	0.787315
0	C	0.425364	0.43744	0.298969
0	C	0.921222	0.0824191	0.662989
0	C	0.60283	0.935589	0.174726
0	H	0.999422	0.611346	0.773338
0	H	0.519828	0.406431	0.285184
0	H	0.0160168	0.113502	0.67639
0	H	0.507692	0.905594	0.188859
0	C	0.100213	0.501199	0.792006
0	C	0.421262	0.518536	0.300404
0	C	0.916347	0.00132804	0.662653
0	C	0.60655	0.0164719	0.170956
0	H	0.00629269	0.466858	0.78051
0	H	0.514731	0.551541	0.286873
0	H	0.00938371	0.968415	0.676662
0	H	0.512852	0.0503108	0.183327
