#******************************************
#
# CIF file created by Zeo++
# Zeo++ is an open source package to
# analyze microporous materials
#
#*******************************************

_cell_length_a		9.00043(0)
_cell_length_b		11.192(0)
_cell_length_c		11.8008(0)
_cell_angle_alpha		91.8305(0)
_cell_angle_beta		125.346(0)
_cell_angle_gamma		108.14(0)

_symmetry_space_group_name_H-M		'P1'
_symmetry_Int_Tables_number		1
_symmetry_cell_setting		Triclinic

loop_
_symmetry_equiv_pos_as_xyz
'+x,+y,+z'

loop_
_atom_site_label
_atom_site_type_symbol
_atom_site_fract_x
_atom_site_fract_y
_atom_site_fract_z
0	C	0.689127	0.154652	0.615776
0	C	0.0190774	0.598121	0.573711
0	C	0.880115	0.254604	0.745317
0	C	0.828064	0.498156	0.444228
0	C	0.018796	0.340468	0.733197
0	C	0.689621	0.412268	0.456544
0	H	0.987958	0.332124	0.628598
0	H	0.720638	0.420516	0.561194
0	C	0.195876	0.437443	0.854851
0	C	0.512464	0.315278	0.335007
0	H	0.304439	0.504266	0.845559
0	H	0.404129	0.248381	0.344425
0	C	0.234863	0.449232	0.988704
0	C	0.473089	0.303523	0.201003
0	H	0.372187	0.525579	0.083277
0	H	0.33573	0.227237	0.106524
0	C	0.0992292	0.361811	0.00201995
0	C	0.608582	0.390877	0.187528
0	H	0.132477	0.369278	0.107472
0	H	0.575206	0.383372	0.0820315
0	C	0.922869	0.264496	0.881085
0	C	0.785058	0.488247	0.308391
0	H	0.8172	0.197024	0.891873
0	H	0.890599	0.555688	0.297496
0	C	0.686047	0.0689122	0.530799
0	C	0.0221774	0.683823	0.658749
0	H	0.822214	0.0694578	0.552634
0	H	0.885984	0.683226	0.636895
0	C	0.49799	0.965375	0.398813
0	C	0.210296	0.7873	0.790804
0	H	0.463213	0.995662	0.299311
0	H	0.245075	0.756916	0.890274
0	H	0.515654	0.871117	0.391655
0	H	0.192713	0.881561	0.79809
0	C	0.50126	0.148773	0.583022
0	C	0.206968	0.604008	0.606481
0	C	0.332195	0.0421851	0.483486
0	C	0.376077	0.710564	0.706096
0	C	0.123056	0.00206033	0.438691
0	C	0.585257	0.750692	0.75094
0	C	0.123962	0.0112859	0.569442
0	C	0.584443	0.741515	0.620205
0	H	0.96792	0.959008	0.530038
0	H	0.740531	0.793719	0.659602
0	H	0.207657	0.956028	0.639168
0	H	0.500644	0.796732	0.550513
0	C	0.209812	0.149467	0.661241
0	C	0.498616	0.603375	0.528388
0	H	0.132775	0.207822	0.592577
0	H	0.575496	0.544955	0.597032
0	H	0.173355	0.141607	0.737148
0	H	0.53509	0.611352	0.45253
0	C	0.435438	0.222074	0.748994
0	C	0.273041	0.530755	0.440554
0	H	0.512291	0.162291	0.815393
0	H	0.196389	0.590621	0.37421
0	H	0.487865	0.311898	0.827651
0	H	0.220749	0.440957	0.36192
0	C	0.497716	0.260149	0.654226
0	C	0.210665	0.492712	0.535261
0	H	0.394572	0.297723	0.569119
0	H	0.313512	0.454889	0.620333
0	H	0.645108	0.344467	0.720428
0	H	0.0630821	0.408368	0.468812
0	C	0.144101	0.835209	0.312901
0	C	0.564242	0.917496	0.876832
0	C	0.0105042	0.855389	0.346441
0	C	0.697818	0.897347	0.84327
0	H	0.0123143	0.791108	0.419079
0	H	0.69594	0.961613	0.770622
0	C	0.7955	0.812181	0.210764
0	C	0.912897	0.940579	0.978902
0	H	0.775471	0.882401	0.14335
0	H	0.932983	0.870313	0.0462534
0	H	0.749245	0.718423	0.137189
0	H	0.959181	0.0342664	0.0525878
0	C	0.654941	0.789522	0.245696
0	C	0.0533324	0.963324	0.943835
0	C	0.0316025	0.088346	0.34454
0	C	0.676611	0.664345	0.845049
0	C	0.781985	0.174403	0.261583
0	C	0.926696	0.578636	0.928359
0	H	0.890143	0.271742	0.2874
0	H	0.818719	0.481447	0.90309
0	H	0.695044	0.17921	0.29745
0	H	0.0131052	0.573443	0.892068
0	H	0.688742	0.124354	0.146319
0	H	0.0204264	0.629021	0.0435731
0	N	0.327426	0.942532	0.400317
0	N	0.38085	0.810182	0.789311
0	O	0.106018	0.742096	0.230184
0	O	0.602198	0.0105422	0.95957
0	O	0.680054	0.782094	0.357249
0	O	0.0278856	0.970623	0.832153
0	O	0.46971	0.775561	0.125449
0	O	0.238689	0.977393	0.0639883
0	H	0.372027	0.762421	0.145253
0	H	0.3363	0.990645	0.0440888
0	O	0.0759134	0.143478	0.275132
0	O	0.631949	0.608916	0.914144
0	O	0.8843	0.0958419	0.346446
0	O	0.824254	0.65711	0.843429
