#******************************************
#
# CIF file created by Zeo++
# Zeo++ is an open source package to
# analyze microporous materials
#
#*******************************************

_cell_length_a		10.8066(0)
_cell_length_b		17.6968(0)
_cell_length_c		17.5974(0)
_cell_angle_alpha		90(0)
_cell_angle_beta		100.224(0)
_cell_angle_gamma		90(0)

_symmetry_space_group_name_H-M		'P1'
_symmetry_Int_Tables_number		1
_symmetry_cell_setting		Monoclinic

loop_
_symmetry_equiv_pos_as_xyz
'+x,+y,+z'

loop_
_atom_site_label
_atom_site_type_symbol
_atom_site_fract_x
_atom_site_fract_y
_atom_site_fract_z
0	Cl	0.698219	0.254223	0.692335
0	Cl	0.285921	0.754474	0.308563
0	Cl	0.401095	0.117193	0.803219
0	Cl	0.583238	0.617168	0.197703
0	Cl	0.92501	0.153276	0.599919
0	Cl	0.0593273	0.653086	0.401316
0	Cl	0.27995	0.346021	0.677625
0	Cl	0.704316	0.846161	0.32346
0	O	0.611279	0.746856	0.51988
0	O	0.373169	0.246338	0.481029
0	O	0.614043	0.837622	0.762674
0	O	0.370272	0.337405	0.238307
0	O	0.141608	0.630393	0.677063
0	O	0.842437	0.129978	0.324098
0	O	0.0596382	0.618227	0.866176
0	O	0.924555	0.117951	0.135074
0	N	0.865159	0.533138	0.56227
0	N	0.118906	0.0330669	0.439025
0	N	0.747605	0.697513	0.618889
0	N	0.236325	0.196997	0.382236
0	N	0.0381648	0.881351	0.845083
0	N	0.946077	0.38109	0.156106
0	N	0.750157	0.884714	0.691706
0	N	0.234089	0.384213	0.309378
0	N	0.938531	0.829372	0.535734
0	N	0.0455846	0.329053	0.465283
0	N	0.0422325	0.731406	0.717114
0	N	0.94171	0.230971	0.283942
0	N	0.633949	0.594876	0.768253
0	N	0.350359	0.0949723	0.232792
0	N	0.967032	0.544203	0.767673
0	N	0.0175903	0.0441344	0.233624
0	C	0.687915	0.697241	0.541806
0	C	0.296249	0.196833	0.459292
0	C	0.735518	0.638568	0.489438
0	C	0.248635	0.138371	0.511854
0	C	0.653997	0.638349	0.407912
0	C	0.330234	0.138018	0.593351
0	C	0.513847	0.62132	0.403489
0	C	0.470376	0.12099	0.597708
0	C	0.48446	0.539633	0.422944
0	C	0.49971	0.0393083	0.578226
0	C	0.514702	0.522262	0.509859
0	C	0.469443	0.0220709	0.491293
0	C	0.651804	0.512152	0.536821
0	C	0.332323	0.0120689	0.464369
0	C	0.745735	0.562229	0.52604
0	C	0.238357	0.0620664	0.475264
0	C	0.711584	0.447623	0.578745
0	C	0.272479	0.947686	0.422312
0	C	0.665261	0.38184	0.608545
0	C	0.318872	0.882003	0.392408
0	C	0.752534	0.332596	0.649007
0	C	0.231577	0.832805	0.351925
0	C	0.884132	0.343538	0.658586
0	C	0.0999728	0.843718	0.342405
0	C	0.931808	0.407966	0.62961
0	C	0.0522316	0.908073	0.371462
0	C	0.844915	0.460694	0.591003
0	C	0.139152	0.96074	0.410118
0	C	0.713287	0.871028	0.762052
0	C	0.270985	0.37074	0.239003
0	C	0.802513	0.890712	0.837227
0	C	0.181727	0.390543	0.163886
0	C	0.736093	0.942164	0.88867
0	C	0.247958	0.442108	0.112427
0	C	0.684888	0.0170784	0.852374
0	C	0.298925	0.517187	0.148532
0	C	0.78545	0.0762404	0.844452
0	C	0.198358	0.576332	0.156525
0	C	0.860224	0.0578159	0.780216
0	C	0.123634	0.557824	0.220758
0	C	0.952403	0.996482	0.804582
0	C	0.0317676	0.496281	0.196517
0	C	0.925	0.924196	0.827317
0	C	0.0592211	0.42398	0.173841
0	C	0.0876143	0.00225268	0.812723
0	C	0.896555	0.501992	0.188418
0	C	0.169317	0.0611855	0.800847
0	C	0.814933	0.560997	0.200261
0	C	0.297082	0.0467077	0.818049
0	C	0.687163	0.546557	0.183036
0	C	0.348301	0.976642	0.847192
0	C	0.635952	0.476448	0.153971
0	C	0.269723	0.917617	0.858629
0	C	0.714463	0.417363	0.142574
0	C	0.139137	0.930608	0.840866
0	C	0.845068	0.430326	0.160323
0	C	0.101994	0.694876	0.663664
0	C	0.882043	0.194479	0.337437
0	C	0.105284	0.732507	0.585561
0	C	0.878758	0.232184	0.415501
0	C	0.23865	0.726636	0.565682
0	C	0.745362	0.226225	0.43532
0	C	0.344313	0.762611	0.623993
0	C	0.639709	0.262194	0.377009
0	C	0.344309	0.849221	0.624776
0	C	0.639757	0.348804	0.376274
0	C	0.240008	0.883753	0.662756
0	C	0.744077	0.383395	0.338348
0	C	0.113993	0.877198	0.613466
0	C	0.870109	0.376918	0.387642
0	C	0.0583456	0.811672	0.579589
0	C	0.925734	0.311359	0.421468
0	C	0.0263698	0.938115	0.591651
0	C	0.957729	0.437871	0.409444
0	C	0.0285335	0.0155065	0.609397
0	C	0.955631	0.51531	0.391787
0	C	0.924389	0.0578583	0.578138
0	C	0.0598263	0.557642	0.423042
0	C	0.817035	0.0274995	0.529731
0	C	0.167204	0.527204	0.471369
0	C	0.812675	0.951535	0.511248
0	C	0.171532	0.451198	0.489749
0	C	0.917541	0.90677	0.542487
0	C	0.0665988	0.406464	0.45854
0	C	0.964249	0.585733	0.833602
0	C	0.020086	0.0855364	0.167576
0	C	0.839604	0.596683	0.862468
0	C	0.144591	0.0967033	0.138586
0	C	0.856928	0.578593	0.94962
0	C	0.127155	0.0786686	0.0514256
0	C	0.90309	0.498465	0.972242
0	C	0.0808549	0.998607	0.0287793
0	C	0.803733	0.436691	0.950072
0	C	0.180321	0.936904	0.0509477
0	C	0.776923	0.418977	0.863129
0	C	0.207168	0.919218	0.137895
0	C	0.699575	0.479012	0.81877
0	C	0.284719	0.979159	0.182249
0	C	0.729979	0.555259	0.818496
0	C	0.25435	0.0553895	0.182527
0	C	0.577636	0.469633	0.770334
0	C	0.406612	0.969738	0.230713
0	C	0.497881	0.407197	0.749975
0	C	0.486361	0.907306	0.251098
0	C	0.382423	0.421095	0.70402
0	C	0.601821	0.921206	0.297047
0	C	0.340781	0.493731	0.67701
0	C	0.643514	0.993835	0.324051
0	C	0.418455	0.555642	0.69503
0	C	0.565805	0.0557067	0.306042
0	C	0.537027	0.543282	0.741558
0	C	0.447238	0.0433569	0.259516
0	H	0.947985	0.549574	0.548557
0	H	0.036072	0.0494501	0.452757
0	H	0.718991	0.734761	0.655828
0	H	0.265048	0.234106	0.345204
0	H	0.801972	0.654677	0.643515
0	H	0.181864	0.15416	0.357589
0	H	0.0465573	0.832914	0.875557
0	H	0.937727	0.332615	0.12568
0	H	0.688903	0.874131	0.642026
0	H	0.295355	0.373579	0.359043
0	H	0.826002	0.916272	0.68603
0	H	0.158101	0.415609	0.315109
0	H	0.879694	0.793023	0.503785
0	H	0.104456	0.29267	0.497175
0	H	0.0513543	0.70886	0.771107
0	H	0.932975	0.208117	0.230106
0	H	0.0191645	0.786864	0.712587
0	H	0.964843	0.286409	0.288393
0	H	0.623544	0.651381	0.76705
0	H	0.360807	0.151461	0.234033
0	H	0.0478312	0.542694	0.745149
0	H	0.936645	0.0422858	0.256013
0	H	0.892608	0.515273	0.738902
0	H	0.0918287	0.0148199	0.262091
0	H	0.831972	0.658065	0.481968
0	H	0.152226	0.157908	0.519345
0	H	0.66196	0.69509	0.38184
0	H	0.322284	0.194693	0.619539
0	H	0.694928	0.597462	0.371526
0	H	0.289293	0.0970242	0.629638
0	H	0.473004	0.66152	0.440768
0	H	0.511128	0.161156	0.560357
0	H	0.465255	0.634033	0.343707
0	H	0.519054	0.133695	0.657467
0	H	0.383611	0.528099	0.40132
0	H	0.600519	0.0276721	0.599864
0	H	0.53697	0.500043	0.391503
0	H	0.447055	0.999787	0.609625
0	H	0.463311	0.470747	0.522499
0	H	0.520789	0.970594	0.478559
0	H	0.479626	0.568418	0.543321
0	H	0.504581	0.0682256	0.457864
0	H	0.564381	0.370758	0.600476
0	H	0.419781	0.871023	0.40047
0	H	0.947307	0.300937	0.688875
0	H	0.0368022	0.801153	0.312086
0	H	0.0326711	0.41755	0.635939
0	H	0.951387	0.917675	0.365211
0	H	0.819991	0.835082	0.868663
0	H	0.164279	0.334924	0.132401
0	H	0.802928	0.953684	0.943069
0	H	0.181031	0.453447	0.0580229
0	H	0.657383	0.90957	0.905539
0	H	0.326741	0.409564	0.0955696
0	H	0.624503	0.006974	0.795511
0	H	0.359521	0.507254	0.205361
0	H	0.621307	0.041538	0.889289
0	H	0.36225	0.541699	0.111473
0	H	0.850913	0.082752	0.900204
0	H	0.132896	0.582964	0.100796
0	H	0.739509	0.132064	0.832415
0	H	0.244304	0.632166	0.168639
0	H	0.795037	0.0418862	0.726451
0	H	0.188883	0.542113	0.274574
0	H	0.908508	0.109487	0.764609
0	H	0.0750917	0.609459	0.236247
0	H	0.132208	0.115943	0.779536
0	H	0.85209	0.615781	0.221525
0	H	0.450179	0.96956	0.860535
0	H	0.534077	0.469352	0.140638
0	H	0.307102	0.863233	0.880581
0	H	0.677031	0.362979	0.120641
0	H	0.0419511	0.696231	0.542477
0	H	0.942081	0.195902	0.458594
0	H	0.260044	0.665694	0.559824
0	H	0.72403	0.165258	0.441112
0	H	0.236932	0.752016	0.507709
0	H	0.74698	0.25155	0.493303
0	H	0.435633	0.743767	0.609359
0	H	0.548372	0.243355	0.391634
0	H	0.34273	0.740985	0.682856
0	H	0.641258	0.240584	0.318135
0	H	0.436764	0.868556	0.657168
0	H	0.547319	0.368148	0.343872
0	H	0.337094	0.871258	0.565119
0	H	0.646912	0.3708	0.435941
0	H	0.239425	0.856262	0.719494
0	H	0.744746	0.355903	0.28162
0	H	0.262548	0.944044	0.676575
0	H	0.721464	0.443672	0.324535
0	H	0.109822	0.0401521	0.6468
0	H	0.874389	0.540094	0.354453
0	H	0.738033	0.064593	0.507473
0	H	0.246214	0.564311	0.493621
0	H	0.731908	0.926294	0.473837
0	H	0.2523	0.425884	0.527118
0	H	0.821558	0.65935	0.856345
0	H	0.162408	0.159379	0.144709
0	H	0.925667	0.619619	0.980805
0	H	0.0584258	0.11969	0.0202593
0	H	0.766463	0.589078	0.969305
0	H	0.217617	0.0890584	0.0317039
0	H	0.934632	0.497445	0.0359086
0	H	0.0492662	0.997622	0.965118
0	H	0.988063	0.485671	0.947472
0	H	0.99589	0.98585	0.0535649
0	H	0.715046	0.453268	0.969094
0	H	0.268952	0.953588	0.0319095
0	H	0.83532	0.384395	0.982246
0	H	0.148834	0.884604	0.0187835
0	H	0.866775	0.412197	0.841393
0	H	0.117309	0.912602	0.159657
0	H	0.728857	0.363473	0.853252
0	H	0.255115	0.863697	0.147795
0	H	0.527071	0.350588	0.770055
0	H	0.457147	0.850712	0.231035
0	H	0.246537	0.501299	0.643354
0	H	0.737791	0.0013512	0.357683
0	H	0.38734	0.612134	0.675768
0	H	0.596929	0.112186	0.325312
