#******************************************
#
# CIF file created by Zeo++
# Zeo++ is an open source package to
# analyze microporous materials
#
#*******************************************

_cell_length_a		6.91068(0)
_cell_length_b		13.5409(0)
_cell_length_c		15.7815(0)
_cell_angle_alpha		76.4682(0)
_cell_angle_beta		86.2216(0)
_cell_angle_gamma		85.9176(0)

_symmetry_space_group_name_H-M		'P1'
_symmetry_Int_Tables_number		1
_symmetry_cell_setting		Triclinic

loop_
_symmetry_equiv_pos_as_xyz
'+x,+y,+z'

loop_
_atom_site_label
_atom_site_type_symbol
_atom_site_fract_x
_atom_site_fract_y
_atom_site_fract_z
0	C	0.604906	0.800058	0.98293
0	H	0.756012	0.766563	0.989422
0	H	0.552573	0.780775	0.924173
0	C	0.606621	0.915685	0.968374
0	H	0.677687	0.936535	0.022184
0	H	0.692518	0.947576	0.907547
0	C	0.398348	0.9618	0.962862
0	H	0.333569	0.957923	0.901143
0	C	0.269714	0.918521	0.0435826
0	H	0.11957	0.952539	0.0356593
0	H	0.319581	0.943482	0.100925
0	C	0.275762	0.803996	0.0623171
0	C	0.110842	0.755228	0.0803578
0	H	0.968972	0.796537	0.079545
0	C	0.101434	0.642097	0.10262
0	H	0.0383258	0.619239	0.04747
0	H	0.998108	0.618617	0.159666
0	C	0.298759	0.584075	0.12334
0	H	0.330717	0.58329	0.191807
0	C	0.462702	0.636	0.06013
0	H	0.422616	0.636525	0.992422
0	C	0.477419	0.749562	0.0643692
0	C	0.658859	0.574486	0.0762364
0	H	0.771132	0.610191	0.0274153
0	H	0.708032	0.578675	0.140796
0	C	0.653504	0.461758	0.07407
0	H	0.797327	0.422139	0.0933769
0	H	0.637772	0.453635	0.00658857
0	C	0.489974	0.411321	0.136398
0	C	0.294888	0.474984	0.111024
0	H	0.278502	0.481486	0.0395828
0	C	0.137463	0.405793	0.160302
0	H	0.114018	0.411188	0.229208
0	H	0.993091	0.424427	0.13133
0	C	0.218625	0.299435	0.153081
0	H	0.133361	0.264135	0.111979
0	C	0.438624	0.305278	0.123659
0	H	0.459272	0.303715	0.0533806
0	C	0.537271	0.405178	0.23116
0	H	0.564166	0.479818	0.242054
0	H	0.66715	0.354662	0.249317
0	H	0.418075	0.374546	0.277423
0	C	0.567437	0.759386	0.148367
0	H	0.566662	0.839196	0.152513
0	H	0.718723	0.729056	0.152167
0	H	0.485645	0.718893	0.206441
0	C	0.541356	0.209756	0.179904
0	H	0.648342	0.232878	0.221269
0	C	0.648684	0.140168	0.127184
0	H	0.699357	0.0683138	0.170225
0	H	0.77689	0.176053	0.0915042
0	H	0.554225	0.119967	0.0810576
0	C	0.37532	0.155147	0.240475
0	O	0.213997	0.229998	0.239704
0	C	0.412754	0.108188	0.336129
0	C	0.26348	0.0387809	0.386642
0	H	0.141805	0.0877606	0.40769
0	H	0.324495	0.992612	0.447812
0	C	0.187475	0.968478	0.334094
0	H	0.30497	0.909246	0.327263
0	C	0.139907	0.0306996	0.242489
0	H	0.10889	0.983165	0.197666
0	H	0.0212116	0.0896655	0.243841
0	O	0.312117	0.0798555	0.20018
0	C	0.00711036	0.916557	0.379889
0	H	0.951393	0.867258	0.342234
0	H	0.888185	0.97234	0.389324
0	H	0.0379298	0.869315	0.444516
0	O	0.403424	0.0703037	0.964823
0	C	0.434279	0.13944	0.887003
0	O	0.457952	0.111699	0.819132
0	C	0.431014	0.243911	0.901268
0	H	0.562239	0.28243	0.869802
0	H	0.422941	0.245874	0.971413
0	H	0.30461	0.290285	0.871319
0	N	0.569275	0.132068	0.366524
0	O	0.602605	0.0784828	0.450645
0	H	0.685974	0.125233	0.475877
0	C	0.0537863	0.569706	0.851093
0	H	0.20189	0.59512	0.853474
0	H	0.967462	0.592429	0.90591
0	C	0.0626159	0.453906	0.865755
0	H	0.163175	0.428538	0.816305
0	H	0.12136	0.418034	0.930365
0	C	0.859887	0.418114	0.861231
0	H	0.764896	0.423983	0.920191
0	C	0.764624	0.468184	0.775913
0	H	0.613636	0.444417	0.778755
0	H	0.838897	0.437527	0.721443
0	C	0.771592	0.582366	0.75469
0	C	0.614162	0.640705	0.725669
0	H	0.476168	0.607787	0.719304
0	C	0.605147	0.75429	0.69904
0	H	0.508145	0.784577	0.7472
0	H	0.534829	0.780127	0.63573
0	C	0.804451	0.800661	0.691137
0	H	0.877297	0.796017	0.626963
0	C	0.932271	0.741234	0.765906
0	H	0.849528	0.743723	0.828868
0	C	0.965691	0.626063	0.763432
0	C	0.124704	0.792936	0.765025
0	H	0.206427	0.753131	0.82244
0	H	0.216211	0.783647	0.70667
0	C	0.100172	0.907251	0.764248
0	H	0.0312469	0.9178	0.826893
0	H	0.244719	0.939342	0.758946
0	C	0.978338	0.964628	0.687563
0	C	0.779974	0.911887	0.699209
0	H	0.719225	0.910214	0.767378
0	C	0.64793	0.987816	0.637387
0	H	0.679125	0.983704	0.568496
0	H	0.492092	0.974946	0.651091
0	C	0.700262	0.0898083	0.653801
0	H	0.589319	0.12205	0.695501
0	C	0.907835	0.0763975	0.690325
0	H	0.897026	0.0837622	0.759496
0	C	0.0883922	0.960554	0.600861
0	H	0.12365	0.882193	0.594992
0	H	0.225745	0.998828	0.594027
0	H	0.00235759	0.998452	0.545021
0	C	0.101961	0.610364	0.686193
0	H	0.103961	0.531841	0.678456
0	H	0.253372	0.625959	0.694236
0	H	0.0552864	0.659934	0.624738
0	C	0.0204723	0.16575	0.633939
0	H	0.133754	0.137463	0.589711
0	C	0.120297	0.226146	0.686902
0	H	0.190753	0.290835	0.643711
0	H	0.23408	0.178992	0.725654
0	H	0.0164527	0.258095	0.730805
0	C	0.864201	0.232798	0.576126
0	O	0.711553	0.166585	0.571586
0	C	0.914389	0.286611	0.481619
0	C	0.752452	0.355388	0.436768
0	H	0.640294	0.30656	0.423021
0	H	0.805612	0.399698	0.372057
0	C	0.661778	0.427315	0.492816
0	H	0.771915	0.482119	0.497555
0	C	0.610523	0.364413	0.585053
0	H	0.570416	0.411748	0.632245
0	H	0.496909	0.310659	0.585538
0	O	0.782156	0.306436	0.622149
0	C	0.480892	0.485779	0.451727
0	H	0.415015	0.538149	0.490197
0	H	0.36896	0.434322	0.445345
0	H	0.515718	0.530906	0.385907
0	O	0.87604	0.309399	0.857836
0	C	0.92986	0.238117	0.930916
0	O	0.969603	0.263253	0.996299
0	C	0.928219	0.134227	0.915335
0	H	0.0631536	0.0892258	0.937189
0	H	0.913765	0.134009	0.845549
0	H	0.806482	0.0931412	0.953188
0	N	0.0867648	0.270296	0.44753
0	O	0.12115	0.332465	0.365361
0	H	0.203684	0.286203	0.330257
