#******************************************
#
# CIF file created by Zeo++
# Zeo++ is an open source package to
# analyze microporous materials
#
#*******************************************

_cell_length_a		28.0505(0)
_cell_length_b		28.0091(0)
_cell_length_c		5.23452(0)
_cell_angle_alpha		90(0)
_cell_angle_beta		90(0)
_cell_angle_gamma		90(0)

_symmetry_space_group_name_H-M		'P1'
_symmetry_Int_Tables_number		1
_symmetry_cell_setting		Monoclinic

loop_
_symmetry_equiv_pos_as_xyz
'+x,+y,+z'

loop_
_atom_site_label
_atom_site_type_symbol
_atom_site_fract_x
_atom_site_fract_y
_atom_site_fract_z
0	Cl	0.934983	0.208324	0.0176349
0	Cl	0.0966182	0.825045	0.0167616
0	Cl	0.207965	0.0975414	0.79045
0	Cl	0.823737	0.935694	0.790477
0	Cl	0.441506	0.719813	0.52537
0	Cl	0.590137	0.31356	0.524319
0	Cl	0.718675	0.591058	0.280653
0	Cl	0.313069	0.442196	0.280527
0	Cl	0.855022	0.31681	0.25658
0	Cl	0.176342	0.716517	0.254984
0	Cl	0.316524	0.177028	0.552579
0	Cl	0.715215	0.856092	0.5525
0	Cl	0.333388	0.835642	0.913556
0	Cl	0.698087	0.19774	0.911428
0	Cl	0.834298	0.699315	0.892813
0	Cl	0.197452	0.333851	0.892336
0	C	0.00829435	0.267259	0.132731
0	C	0.0234706	0.766008	0.133341
0	C	0.266779	0.0242376	0.673059
0	C	0.764911	0.00901288	0.673651
0	C	0.513549	0.781251	0.624786
0	C	0.518219	0.252054	0.62507
0	C	0.780032	0.518905	0.181251
0	C	0.251688	0.514323	0.181108
0	C	0.0393477	0.180641	0.242598
0	C	0.992308	0.852605	0.242916
0	C	0.180251	0.993261	0.562474
0	C	0.851441	0.0399828	0.56311
0	C	0.54776	0.695195	0.738161
0	C	0.483929	0.338094	0.73822
0	C	0.69412	0.484599	0.067876
0	C	0.33759	0.548639	0.067633
0	C	0.0671152	0.246317	0.462402
0	C	0.964698	0.786933	0.463307
0	C	0.24583	0.965645	0.341949
0	C	0.785867	0.0676328	0.342677
0	C	0.575132	0.762548	0.942939
0	C	0.456683	0.270746	0.943518
0	C	0.761388	0.457192	0.863252
0	C	0.270316	0.57605	0.863107
0	N	0.0863297	0.205693	0.582466
0	N	0.945465	0.827556	0.583348
0	N	0.205262	0.9465	0.221471
0	N	0.826441	0.0867662	0.222183
0	N	0.595759	0.723116	0.0662582
0	N	0.436031	0.310174	0.0667806
0	N	0.722032	0.436498	0.740018
0	N	0.309666	0.59677	0.739934
0	C	0.0347922	0.231796	0.267922
0	C	0.996953	0.801458	0.268516
0	C	0.23134	0.997851	0.537263
0	C	0.800352	0.0354125	0.537906
0	C	0.542497	0.746476	0.753061
0	C	0.489258	0.286819	0.753334
0	C	0.745323	0.489886	0.0530789
0	C	0.286389	0.543348	0.0528613
0	C	0.0251061	0.316251	0.153165
0	C	0.00676796	0.716989	0.154393
0	C	0.315698	0.00742805	0.651935
0	C	0.715991	0.0258225	0.65262
0	C	0.528516	0.830942	0.645056
0	C	0.503339	0.202347	0.645908
0	C	0.829656	0.503942	0.16091
0	C	0.202058	0.52928	0.16082
0	N	0.00927838	0.351278	0.996233
0	N	0.0226179	0.681937	0.99768
0	N	0.350699	0.0231098	0.809253
0	N	0.68098	0.0100821	0.809651
0	N	0.508754	0.866283	0.504723
0	N	0.523116	0.166987	0.505752
0	N	0.864946	0.523751	0.301208
0	N	0.166769	0.509446	0.300941
0	C	0.949951	0.295867	0.819816
0	C	0.0816967	0.737438	0.819658
0	C	0.295405	0.0823591	0.987558
0	C	0.736283	0.950804	0.987646
0	C	0.448199	0.810039	0.352196
0	C	0.583489	0.223291	0.351787
0	C	0.808767	0.58438	0.453733
0	C	0.222957	0.448817	0.453409
0	C	0.0249635	0.147053	0.058018
0	C	0.00656415	0.886165	0.0578929
0	C	0.146684	0.00752205	0.747257
0	C	0.884996	0.0257011	0.74791
0	C	0.532072	0.659324	0.568978
0	C	0.499527	0.373957	0.568723
0	C	0.658268	0.500341	0.236806
0	C	0.373436	0.532901	0.236606
0	H	0.00520933	0.158132	0.888927
0	H	0.0262354	0.87506	0.888572
0	H	0.157733	0.0271873	0.916774
0	H	0.873936	0.00603213	0.917378
0	H	0.511502	0.66846	0.399404
0	H	0.520047	0.364818	0.398974
0	H	0.667369	0.520981	0.406285
0	H	0.364335	0.512265	0.406081
0	C	0.0786187	0.295502	0.507442
0	C	0.953264	0.737744	0.508656
0	C	0.294932	0.954164	0.296417
0	C	0.736758	0.0791159	0.297234
0	C	0.585424	0.812111	0.985942
0	C	0.446465	0.221183	0.986893
0	C	0.810877	0.446921	0.820148
0	C	0.22082	0.586319	0.820109
0	H	0.103623	0.304875	0.659113
0	H	0.928264	0.728364	0.660328
0	H	0.304278	0.929242	0.144172
0	H	0.727402	0.104025	0.144943
0	H	0.610666	0.822243	0.134821
0	H	0.421253	0.211055	0.135916
0	H	0.820991	0.421643	0.671267
0	H	0.210685	0.611598	0.671271
0	C	0.0835124	0.116889	0.4753
0	C	0.948123	0.916348	0.47554
0	C	0.116592	0.949169	0.32894
0	C	0.915115	0.0840612	0.32965
0	C	0.592477	0.633506	0.98656
0	C	0.439211	0.399772	0.986713
0	C	0.632553	0.43978	0.819379
0	C	0.399152	0.593473	0.819204
0	H	0.106387	0.105612	0.631905
0	H	0.925265	0.927632	0.632201
0	H	0.10534	0.926367	0.171901
0	H	0.926383	0.106865	0.172635
0	H	0.616363	0.624077	0.142109
0	H	0.415348	0.409189	0.142386
0	H	0.623171	0.415841	0.663856
0	H	0.408539	0.617418	0.663716
0	C	0.0709997	0.165223	0.442661
0	C	0.96069	0.868021	0.44311
0	C	0.164854	0.961709	0.361781
0	C	0.866849	0.0715364	0.36243
0	C	0.580217	0.681521	0.938748
0	C	0.451498	0.351762	0.938925
0	C	0.680489	0.452072	0.867363
0	C	0.351216	0.581175	0.867128
0	C	0.0593405	0.329028	0.350362
0	C	0.972585	0.704203	0.351816
0	C	0.328443	0.973359	0.453707
0	C	0.703251	0.0599316	0.454555
0	C	0.564205	0.844941	0.832901
0	C	0.4677	0.188341	0.833982
0	C	0.843655	0.468214	0.97306
0	C	0.188052	0.565022	0.973026
0	H	0.0685813	0.366838	0.367167
0	H	0.963409	0.666381	0.368915
0	H	0.366195	0.964105	0.436602
0	H	0.665492	0.0691542	0.437347
0	H	0.571996	0.883091	0.848943
0	H	0.459952	0.150187	0.850228
0	H	0.881753	0.460451	0.956903
0	H	0.149952	0.572786	0.956972
0	C	0.0667224	0.0847152	0.295783
0	C	0.964823	0.948509	0.295688
0	C	0.0844367	0.965843	0.508712
0	C	0.947258	0.067374	0.509464
0	C	0.573819	0.599247	0.824446
0	C	0.457809	0.434031	0.824396
0	C	0.598316	0.458488	0.981246
0	C	0.433384	0.57477	0.981126
0	H	0.0761015	0.0469972	0.311979
0	H	0.955415	0.986222	0.311821
0	H	0.0467677	0.956478	0.492148
0	H	0.98493	0.076734	0.492945
0	H	0.582483	0.561629	0.8542
0	H	0.449139	0.471646	0.854159
0	H	0.56076	0.449809	0.951373
0	H	0.470937	0.583472	0.951299
0	C	0.967277	0.260157	0.985428
0	C	0.0643975	0.773149	0.985338
0	C	0.259726	0.0651715	0.821626
0	C	0.771967	0.968041	0.821862
0	C	0.470702	0.773497	0.494489
0	C	0.560999	0.259832	0.494131
0	C	0.772284	0.561825	0.311518
0	C	0.259442	0.471398	0.311262
0	C	0.974366	0.341162	0.822643
0	C	0.0573955	0.692083	0.823355
0	C	0.340621	0.057876	0.984005
0	C	0.691048	0.975243	0.984028
0	C	0.470446	0.856288	0.352631
0	C	0.56133	0.177	0.353022
0	C	0.854953	0.562113	0.453282
0	C	0.176762	0.471059	0.452893
0	C	0.96061	0.377763	0.642641
0	C	0.0711146	0.655461	0.643421
0	C	0.377206	0.0714849	0.16415
0	C	0.654449	0.961569	0.16393
0	C	0.45043	0.894538	0.201027
0	C	0.581333	0.13873	0.201513
0	C	0.893154	0.582173	0.604826
0	C	0.138555	0.45096	0.604178
0	H	0.980263	0.41147	0.646538
0	H	0.0515355	0.621716	0.647991
0	H	0.410833	0.0517594	0.159758
0	H	0.620794	0.981247	0.159442
0	H	0.469297	0.928702	0.198887
0	H	0.562536	0.104527	0.200128
0	H	0.927276	0.563293	0.606792
0	H	0.104421	0.469818	0.606148
0	C	0.899807	0.325045	0.47888
0	C	0.131684	0.708268	0.477982
0	C	0.32465	0.132319	0.32939
0	C	0.707051	0.900779	0.32922
0	C	0.386434	0.841922	0.0791675
0	C	0.645143	0.191433	0.0779126
0	C	0.840583	0.646226	0.726919
0	C	0.191141	0.386922	0.7263
0	C	0.92446	0.369845	0.473614
0	C	0.107122	0.663415	0.473542
0	C	0.369361	0.107578	0.333947
0	C	0.662304	0.925453	0.333583
0	C	0.409213	0.887627	0.0680108
0	C	0.622445	0.14568	0.0676183
0	C	0.886232	0.62343	0.737992
0	C	0.145472	0.409675	0.737128
0	H	0.913766	0.396955	0.334941
0	H	0.117771	0.636284	0.33489
0	H	0.396476	0.118163	0.47266
0	H	0.635165	0.914809	0.47202
0	H	0.393289	0.916064	0.952948
0	H	0.638354	0.11723	0.952589
0	H	0.914618	0.639387	0.853085
0	H	0.117058	0.393687	0.851876
0	C	0.0385612	0.0997783	0.0863025
0	C	0.992916	0.93343	0.0859903
0	C	0.0994827	0.993911	0.718729
0	C	0.932202	0.0393057	0.719429
0	C	0.544536	0.612206	0.615097
0	C	0.487029	0.421067	0.614782
0	C	0.611231	0.487858	0.190497
0	C	0.420473	0.545398	0.190351
0	H	0.027918	0.073618	0.943222
0	H	0.00347344	0.959563	0.942561
0	H	0.0733582	0.00449038	0.861995
0	H	0.958314	0.0287213	0.862756
0	H	0.532035	0.584296	0.486613
0	H	0.499448	0.448973	0.486048
0	H	0.583334	0.500416	0.318708
0	H	0.448363	0.53286	0.318672
0	C	0.910727	0.289384	0.647198
0	C	0.120789	0.743953	0.64622
0	C	0.289003	0.121522	0.161053
0	C	0.742701	0.911621	0.160969
0	C	0.404542	0.804072	0.212163
0	C	0.627051	0.229288	0.210924
0	C	0.802804	0.628104	0.593792
0	C	0.228929	0.405086	0.59336
0	H	0.89099	0.255797	0.648642
0	H	0.140452	0.777586	0.647029
0	H	0.255478	0.141312	0.160208
0	H	0.776237	0.891852	0.160098
0	H	0.386591	0.769504	0.213231
0	H	0.64495	0.263886	0.211401
0	H	0.768288	0.646088	0.592674
0	H	0.263457	0.387129	0.592382
0	C	0.127284	0.205461	0.76054
0	C	0.904456	0.827764	0.761054
0	C	0.205042	0.905577	0.0428187
0	C	0.826677	0.127673	0.0434217
0	C	0.634088	0.724983	0.259841
0	C	0.397644	0.308302	0.26002
0	C	0.723888	0.398228	0.545815
0	C	0.307795	0.635009	0.545541
0	H	0.123227	0.174156	0.891283
0	H	0.908491	0.85904	0.892023
0	H	0.173774	0.909683	0.912183
0	H	0.857923	0.123525	0.912669
0	H	0.629634	0.693977	0.392149
0	H	0.402058	0.339308	0.392376
0	H	0.692947	0.402792	0.413463
0	H	0.338733	0.630441	0.413178
0	H	0.125548	0.237968	0.883044
0	H	0.906149	0.795231	0.883363
0	H	0.237482	0.907407	0.920214
0	H	0.794212	0.125865	0.921002
0	H	0.629316	0.757672	0.378861
0	H	0.402397	0.275613	0.379058
0	H	0.75654	0.403059	0.426945
0	H	0.275139	0.630157	0.426733
0	C	0.174614	0.203069	0.617183
0	C	0.857181	0.830194	0.617196
0	C	0.202704	0.858116	0.185617
0	C	0.829074	0.175138	0.186166
0	C	0.683299	0.724338	0.135581
0	C	0.348456	0.308922	0.135507
0	C	0.723191	0.348863	0.669138
0	C	0.308455	0.684379	0.668828
0	H	0.176003	0.172434	0.486172
0	H	0.855885	0.860809	0.486007
0	H	0.172143	0.856665	0.316824
0	H	0.859595	0.176535	0.317655
0	H	0.689524	0.691251	0.0278815
0	H	0.342298	0.34189	0.0266506
0	H	0.69017	0.342594	0.776942
0	H	0.341387	0.690611	0.777479
0	H	0.204821	0.199392	0.749006
0	H	0.826915	0.833928	0.748558
0	H	0.198984	0.827913	0.0535616
0	H	0.83288	0.205328	0.0540863
0	H	0.711662	0.726983	0.279181
0	H	0.32007	0.306515	0.279092
0	H	0.72575	0.320555	0.524957
0	H	0.306054	0.712691	0.524596
0	H	0.180976	0.235233	0.502568
0	H	0.850842	0.798016	0.502664
0	H	0.234855	0.851723	0.29993
0	H	0.796901	0.181597	0.300192
0	H	0.68815	0.754205	0.00242968
0	H	0.34356	0.278906	0.0033792
0	H	0.753037	0.343869	0.802002
0	H	0.278492	0.689395	0.800909
