#******************************************
#
# CIF file created by Zeo++
# Zeo++ is an open source package to
# analyze microporous materials
#
#*******************************************

_cell_length_a		33.1427(0)
_cell_length_b		8.00946(0)
_cell_length_c		8.73345(0)
_cell_angle_alpha		90(0)
_cell_angle_beta		94.0724(0)
_cell_angle_gamma		90(0)

_symmetry_space_group_name_H-M		'P1'
_symmetry_Int_Tables_number		1
_symmetry_cell_setting		Monoclinic

loop_
_symmetry_equiv_pos_as_xyz
'+x,+y,+z'

loop_
_atom_site_label
_atom_site_type_symbol
_atom_site_fract_x
_atom_site_fract_y
_atom_site_fract_z
0	O	0.752136	0.803625	0.572667
0	O	0.25891	0.803703	0.45031
0	O	0.245488	0.304814	0.570418
0	O	0.765578	0.304745	0.452778
0	O	0.724188	0.862897	0.785368
0	O	0.286882	0.862771	0.237656
0	O	0.217205	0.364641	0.782311
0	O	0.793926	0.364525	0.241028
0	O	0.778055	0.505996	0.800671
0	O	0.233035	0.506044	0.222209
0	O	0.270957	0.0065526	0.798198
0	O	0.740171	0.00662017	0.22493
0	O	0.968358	0.155396	0.835207
0	O	0.0427042	0.1553	0.187684
0	O	0.461935	0.663736	0.830927
0	O	0.549163	0.663816	0.192159
0	O	0.922955	0.274524	0.316076
0	O	0.0880422	0.274053	0.707005
0	O	0.414804	0.780526	0.313741
0	O	0.596295	0.780187	0.709477
0	C	0.783418	0.712021	0.498075
0	C	0.227609	0.71201	0.524752
0	C	0.27693	0.212931	0.497051
0	C	0.734114	0.21291	0.526055
0	C	0.826992	0.759626	0.551973
0	C	0.184043	0.759772	0.470948
0	C	0.320412	0.261511	0.551421
0	C	0.690644	0.261585	0.471588
0	H	0.838685	0.846591	0.464224
0	H	0.172373	0.846842	0.558691
0	H	0.332011	0.349051	0.463926
0	H	0.679042	0.349211	0.559031
0	C	0.82978	0.852436	0.708248
0	C	0.181268	0.852518	0.314689
0	C	0.323004	0.353737	0.707936
0	C	0.688092	0.353813	0.315071
0	C	0.796621	0.795536	0.813864
0	C	0.214427	0.795498	0.20911
0	C	0.289607	0.296332	0.81241
0	C	0.721505	0.29637	0.210702
0	C	0.801963	0.609254	0.853671
0	C	0.209102	0.609222	0.169253
0	C	0.294862	0.109785	0.851347
0	C	0.716255	0.109813	0.171796
0	C	0.837557	0.562492	0.961768
0	C	0.173518	0.562388	0.061149
0	C	0.330495	0.0625622	0.959064
0	C	0.680639	0.0625465	0.064045
0	C	0.83743	0.664889	0.109825
0	C	0.173626	0.664864	0.913136
0	C	0.330478	0.164142	0.107622
0	C	0.680682	0.164112	0.915453
0	C	0.835556	0.851766	0.0751475
0	C	0.175514	0.851733	0.947837
0	C	0.328471	0.351214	0.073989
0	C	0.6827	0.351196	0.949045
0	H	0.863741	0.89248	0.0251142
0	H	0.147318	0.89246	0.997805
0	H	0.356659	0.392658	0.024216
0	H	0.654494	0.392667	0.998682
0	H	0.834032	0.922853	0.183679
0	H	0.177045	0.922831	0.839288
0	H	0.326934	0.421692	0.182912
0	H	0.684264	0.42158	0.840121
0	C	0.798571	0.897902	0.96642
0	C	0.212503	0.897806	0.0565596
0	C	0.291484	0.397823	0.965473
0	C	0.719667	0.397833	0.0576464
0	C	0.799846	0.0822769	0.934918
0	C	0.211243	0.082196	0.088121
0	C	0.292862	0.582373	0.934881
0	C	0.718293	0.582381	0.0882153
0	C	0.813062	0.146196	0.806881
0	C	0.197998	0.146243	0.216065
0	C	0.306332	0.646811	0.807489
0	C	0.704778	0.646883	0.215512
0	C	0.827809	0.0439545	0.677966
0	C	0.183246	0.0440703	0.345016
0	C	0.321056	0.545248	0.678148
0	C	0.690042	0.545325	0.344838
0	C	0.869244	0.10708	0.640674
0	C	0.141793	0.10708	0.38232
0	C	0.362374	0.609076	0.639974
0	C	0.648726	0.609131	0.383056
0	C	0.874686	0.164352	0.491595
0	C	0.136302	0.16411	0.531383
0	C	0.367305	0.66664	0.490609
0	C	0.643804	0.666739	0.532409
0	C	0.913223	0.217746	0.45735
0	C	0.0977506	0.217333	0.565682
0	C	0.405532	0.722647	0.455026
0	C	0.605567	0.72248	0.568134
0	C	0.946545	0.218527	0.56685
0	C	0.0644582	0.218008	0.456215
0	C	0.439008	0.725783	0.563749
0	C	0.572078	0.725533	0.459439
0	C	0.939722	0.162473	0.714219
0	C	0.0713084	0.162245	0.308781
0	C	0.432784	0.668649	0.711269
0	C	0.578313	0.668628	0.311846
0	C	0.901322	0.107016	0.753135
0	C	0.109721	0.106967	0.269813
0	C	0.394735	0.610223	0.751427
0	C	0.616362	0.610288	0.271619
0	H	0.897457	0.0648784	0.869241
0	H	0.113609	0.0649778	0.15359
0	H	0.391293	0.567384	0.867638
0	H	0.619785	0.567585	0.155326
0	C	0.853689	0.603752	0.554324
0	C	0.157299	0.603969	0.468769
0	C	0.347335	0.106325	0.553469
0	C	0.663688	0.106441	0.469423
0	C	0.755152	0.82154	0.72916
0	C	0.255903	0.821502	0.293792
0	C	0.248252	0.322954	0.726938
0	C	0.76285	0.322902	0.296245
0	C	0.891925	0.267553	0.190254
0	C	0.119139	0.267234	0.832612
0	C	0.383911	0.768527	0.187796
0	C	0.627217	0.768459	0.835354
0	H	0.864408	0.333251	0.219881
0	H	0.146553	0.33346	0.80275
0	H	0.355853	0.830724	0.216661
0	H	0.65522	0.831003	0.806379
0	H	0.885435	0.137176	0.160275
0	H	0.125763	0.136963	0.862587
0	H	0.378494	0.637221	0.158683
0	H	0.632742	0.637194	0.864419
0	H	0.906705	0.331415	0.0982772
0	H	0.10434	0.330954	0.924816
0	H	0.398289	0.833717	0.0954535
0	H	0.612818	0.833439	0.927748
0	C	0.0100021	0.193804	0.806255
0	C	0.00104231	0.193446	0.216446
0	C	0.503037	0.709588	0.800302
0	C	0.508044	0.709386	0.222835
0	H	0.0128261	0.32459	0.772749
0	H	0.99819	0.324072	0.250444
0	H	0.504362	0.841215	0.767883
0	H	0.506676	0.840883	0.255604
0	H	0.0207823	0.109429	0.719472
0	H	0.990213	0.108634	0.302785
0	H	0.514365	0.627797	0.712634
0	H	0.496707	0.627255	0.310222
0	H	0.02596	0.17003	0.918954
0	H	0.985157	0.170096	0.103557
0	H	0.519503	0.687249	0.912356
0	H	0.491584	0.687366	0.110677
0	H	0.776888	0.577708	0.517477
0	H	0.23412	0.577721	0.504985
0	H	0.270482	0.0786545	0.517138
0	H	0.740548	0.0786573	0.505974
0	H	0.775635	0.74622	0.376406
0	H	0.235394	0.745903	0.646537
0	H	0.269279	0.246013	0.375035
0	H	0.741743	0.24596	0.648091
0	H	0.859718	0.823399	0.770139
0	H	0.151312	0.823717	0.252837
0	H	0.352853	0.32486	0.770551
0	H	0.658253	0.324929	0.252362
0	H	0.836091	0.42694	0.989028
0	H	0.175022	0.426837	0.0337947
0	H	0.329017	0.926762	0.985715
0	H	0.682121	0.926798	0.037389
0	H	0.866179	0.581451	0.905359
0	H	0.144898	0.581154	0.11752
0	H	0.359074	0.0817685	0.902487
0	H	0.652038	0.0817575	0.120486
0	H	0.811405	0.625769	0.175372
0	H	0.199633	0.625763	0.847483
0	H	0.304554	0.124227	0.173332
0	H	0.706598	0.124125	0.84972
0	H	0.864807	0.635713	0.185391
0	H	0.146229	0.635727	0.837629
0	H	0.35797	0.13481	0.182562
0	H	0.653182	0.134825	0.840539
0	H	0.770264	0.86929	0.025917
0	H	0.240807	0.869126	0.997064
0	H	0.263176	0.368933	0.0246035
0	H	0.747982	0.368918	0.998586
0	H	0.789531	0.161537	0.0262645
0	H	0.221606	0.161359	0.996828
0	H	0.282456	0.661241	0.0263709
0	H	0.728703	0.661188	0.996716
0	H	0.812942	0.281039	0.78521
0	H	0.198097	0.281158	0.237523
0	H	0.306378	0.781771	0.786612
0	H	0.70472	0.781853	0.236359
0	H	0.80556	0.0665012	0.575933
0	H	0.205469	0.0666229	0.447158
0	H	0.298656	0.567927	0.576541
0	H	0.712443	0.568024	0.446467
0	H	0.849062	0.170287	0.406697
0	H	0.161905	0.170332	0.616331
0	H	0.341519	0.671525	0.406347
0	H	0.669588	0.671584	0.616666
0	H	0.975769	0.262172	0.535269
0	H	0.0351979	0.261329	0.487705
0	H	0.467846	0.771975	0.531032
0	H	0.543226	0.771463	0.492232
0	H	0.885671	0.634531	0.580922
0	H	0.125302	0.634735	0.442974
0	H	0.379195	0.137654	0.581754
0	H	0.631821	0.138086	0.441679
0	H	0.851632	0.540751	0.441943
0	H	0.159543	0.540496	0.580905
0	H	0.345702	0.0446362	0.440595
0	H	0.665407	0.0444015	0.582299
0	H	0.845086	0.50913	0.636632
0	H	0.165745	0.509682	0.385839
0	H	0.338614	0.0104432	0.63449
0	H	0.672301	0.0109819	0.388055
