#******************************************
#
# CIF file created by Zeo++
# Zeo++ is an open source package to
# analyze microporous materials
#
#*******************************************

_cell_length_a		13.0844(0)
_cell_length_b		12.8722(0)
_cell_length_c		42.9515(0)
_cell_angle_alpha		90(0)
_cell_angle_beta		90(0)
_cell_angle_gamma		90(0)

_symmetry_space_group_name_H-M		'P1'
_symmetry_Int_Tables_number		1
_symmetry_cell_setting		Monoclinic

loop_
_symmetry_equiv_pos_as_xyz
'+x,+y,+z'

loop_
_atom_site_label
_atom_site_type_symbol
_atom_site_fract_x
_atom_site_fract_y
_atom_site_fract_z
0	C	0.826333	0.0761712	0.190476
0	C	0.684428	0.921973	0.691325
0	C	0.184254	0.577564	0.31446
0	C	0.32399	0.41895	0.815435
0	H	0.87684	0.137669	0.182306
0	H	0.633906	0.860572	0.6831
0	H	0.133897	0.638725	0.322929
0	H	0.374158	0.357028	0.823507
0	C	0.864428	0.999544	0.210386
0	C	0.646268	0.998599	0.711223
0	C	0.14574	0.501609	0.294397
0	C	0.362377	0.495444	0.79553
0	H	0.944099	0.00212211	0.217653
0	H	0.566536	0.996098	0.71843
0	H	0.0658928	0.504343	0.287325
0	H	0.441943	0.492376	0.788181
0	C	0.800663	0.919866	0.220965
0	C	0.710055	0.0781781	0.721867
0	C	0.209343	0.422419	0.283404
0	C	0.298988	0.575586	0.785056
0	H	0.830442	0.860201	0.236425
0	H	0.680252	0.13775	0.737359
0	H	0.179282	0.363383	0.267785
0	H	0.328941	0.635033	0.769556
0	C	0.698366	0.917239	0.211569
0	C	0.812368	0.0808157	0.712487
0	C	0.311848	0.419495	0.292585
0	C	0.196863	0.578958	0.79461
0	H	0.648273	0.855341	0.219697
0	H	0.862406	0.14276	0.720619
0	H	0.361788	0.357946	0.284146
0	H	0.147102	0.641266	0.786579
0	C	0.659899	0.993792	0.19172
0	C	0.850916	0.004201	0.692668
0	C	0.350735	0.495365	0.312595
0	C	0.15814	0.502593	0.814478
0	H	0.579829	0.991183	0.184588
0	H	0.931006	0.00680909	0.685558
0	H	0.430966	0.49264	0.319547
0	H	0.0782485	0.505823	0.82177
0	C	0.723734	0.0737855	0.180999
0	C	0.787145	0.924156	0.681957
0	C	0.287085	0.574916	0.32369
0	C	0.22153	0.421997	0.825027
0	C	0.680197	0.155482	0.159306
0	C	0.830724	0.842051	0.660409
0	C	0.331075	0.656174	0.345437
0	C	0.177821	0.340249	0.846661
0	H	0.595612	0.142123	0.156637
0	H	0.915314	0.855307	0.65771
0	H	0.415595	0.642404	0.348121
0	H	0.0932966	0.353808	0.849402
0	C	0.729097	0.144855	0.127078
0	C	0.781838	0.852117	0.628166
0	C	0.282117	0.645599	0.377658
0	C	0.227024	0.350461	0.878863
0	C	0.721176	0.0401183	0.109818
0	C	0.789518	0.956815	0.610876
0	C	0.289422	0.540522	0.394765
0	C	0.219741	0.45525	0.896126
0	H	0.677604	0.976573	0.121211
0	H	0.833043	0.0204224	0.622272
0	H	0.332745	0.476983	0.383272
0	H	0.176465	0.518966	0.884723
0	C	0.664872	0.134846	0.0971154
0	C	0.846048	0.862194	0.598201
0	C	0.346259	0.634707	0.407608
0	C	0.163032	0.360832	0.908862
0	H	0.699629	0.170316	0.0760534
0	H	0.811441	0.82655	0.577149
0	H	0.31178	0.670027	0.428729
0	H	0.197687	0.325253	0.929917
0	C	0.551608	0.143008	0.0965785
0	C	0.959342	0.854253	0.597722
0	C	0.459573	0.64235	0.408086
0	C	0.0497434	0.352914	0.909356
0	C	0.487985	0.0736123	0.112608
0	C	0.0227454	0.924924	0.613332
0	C	0.522768	0.571705	0.392399
0	C	0.986358	0.422968	0.893496
0	H	0.520499	0.00958912	0.126176
0	H	0.98997	0.989628	0.626561
0	H	0.489866	0.507137	0.379152
0	H	0.0191059	0.487502	0.880191
0	C	0.381771	0.0846304	0.111029
0	C	0.128998	0.91421	0.611785
0	C	0.629047	0.582308	0.393872
0	C	0.880126	0.41178	0.894844
0	H	0.332972	0.0299288	0.123544
0	H	0.177648	0.969881	0.623964
0	H	0.677527	0.526656	0.381623
0	H	0.831507	0.466921	0.882442
0	C	0.338309	0.164444	0.0934165
0	C	0.172692	0.83337	0.594649
0	C	0.672969	0.662991	0.411022
0	C	0.836427	0.331116	0.912049
0	H	0.255511	0.172458	0.0919937
0	H	0.255515	0.825592	0.593245
0	H	0.755809	0.67076	0.412342
0	H	0.75362	0.322852	0.913248
0	C	0.401479	0.233729	0.0772942
0	C	0.109736	0.762699	0.578997
0	C	0.610201	0.733525	0.426802
0	C	0.899351	0.261271	0.928045
0	H	0.367579	0.295717	0.0634052
0	H	0.143785	0.699807	0.565512
0	H	0.64445	0.796189	0.440339
0	H	0.865274	0.198643	0.941632
0	C	0.507523	0.223324	0.078837
0	C	0.00364394	0.77282	0.580495
0	C	0.5041	0.723535	0.425366
0	C	0.00542434	0.271875	0.926744
0	H	0.556211	0.277532	0.0662199
0	H	0.955064	0.717488	0.56828
0	H	0.455685	0.778811	0.437661
0	H	0.0539531	0.217196	0.939235
0	C	0.825194	0.200444	0.124018
0	C	0.685987	0.7961	0.625103
0	C	0.186437	0.701839	0.380816
0	C	0.322864	0.294424	0.881847
0	N	0.901918	0.244429	0.121929
0	N	0.609513	0.751685	0.622985
0	N	0.110034	0.746346	0.383002
0	N	0.399404	0.250089	0.88388
0	C	0.693456	0.266766	0.173358
0	C	0.817258	0.731075	0.674662
0	C	0.318191	0.767453	0.331352
0	C	0.190798	0.229144	0.832466
0	H	0.777256	0.281077	0.177167
0	H	0.733421	0.71704	0.678504
0	H	0.234421	0.782054	0.327565
0	H	0.274552	0.214827	0.828545
0	N	0.658216	0.344603	0.149703
0	N	0.852276	0.652663	0.651149
0	N	0.353815	0.845142	0.354985
0	N	0.155762	0.151088	0.856078
0	C	0.544839	0.351102	0.146839
0	C	0.965628	0.645655	0.648334
0	C	0.467224	0.851359	0.357742
0	C	0.0424102	0.144168	0.858903
0	H	0.51208	0.272555	0.144347
0	H	0.998651	0.724016	0.645633
0	H	0.499737	0.772711	0.360289
0	H	0.00944832	0.222579	0.861553
0	H	0.526813	0.393424	0.125169
0	H	0.983589	0.602613	0.626788
0	H	0.485594	0.89385	0.379356
0	H	0.0244176	0.101294	0.880477
0	H	0.5064	0.390056	0.166385
0	H	0.00386544	0.607174	0.668001
0	H	0.505593	0.889928	0.338114
0	H	0.00412015	0.105584	0.839265
0	C	0.701982	0.449552	0.156189
0	C	0.807991	0.548042	0.657774
0	C	0.310017	0.95013	0.348605
0	C	0.200088	0.0463957	0.849588
0	H	0.677372	0.504349	0.137829
0	H	0.832714	0.49266	0.639587
0	H	0.335238	0.00497705	0.36687
0	H	0.175458	0.991294	0.867858
0	H	0.785948	0.445063	0.154984
0	H	0.724066	0.552898	0.656394
0	H	0.226084	0.945716	0.350077
0	H	0.284015	0.05133	0.85094
0	H	0.680008	0.483334	0.17874
0	H	0.829344	0.514739	0.680444
0	H	0.331255	0.983804	0.325976
0	H	0.178736	0.0127437	0.826968
0	C	0.639874	0.273238	0.205054
0	C	0.870848	0.725186	0.706365
0	C	0.371603	0.773634	0.29962
0	C	0.136885	0.223133	0.800814
0	H	0.643767	0.352101	0.214579
0	H	0.867247	0.646431	0.715974
0	H	0.368094	0.852526	0.290105
0	H	0.140452	0.144353	0.79122
0	H	0.675382	0.220834	0.222084
0	H	0.835125	0.777674	0.723331
0	H	0.335665	0.721481	0.282606
0	H	0.172383	0.275592	0.783798
0	H	0.559139	0.251065	0.203689
0	H	0.951501	0.747677	0.704972
0	H	0.452212	0.750959	0.300927
0	H	0.0562274	0.245536	0.802268
0	C	0.811714	0.00296203	0.0919716
0	C	0.698779	0.99402	0.593141
0	C	0.198568	0.503318	0.41245
0	C	0.310809	0.49197	0.913811
0	O	0.856491	0.920707	0.106797
0	O	0.654317	0.0761663	0.60814
0	O	0.154101	0.421149	0.397473
0	O	0.355138	0.574529	0.898999
0	C	0.955529	0.883833	0.094765
0	C	0.555487	0.113948	0.596243
0	C	0.0550105	0.383752	0.409292
0	C	0.454331	0.611624	0.91084
0	H	0.961189	0.902339	0.0696045
0	H	0.549613	0.0959525	0.571065
0	H	0.0488833	0.401813	0.43446
0	H	0.460586	0.592772	0.935953
0	H	0.949172	0.799112	0.0983985
0	H	0.562597	0.198574	0.599982
0	H	0.0618083	0.299116	0.405558
0	H	0.447387	0.696403	0.907397
0	C	0.0392156	0.933418	0.113909
0	C	0.471614	0.0647311	0.615399
0	C	0.971469	0.43325	0.39007
0	C	0.537735	0.562843	0.891389
0	H	0.0387174	0.018449	0.111915
0	H	0.470376	0.979783	0.612972
0	H	0.97043	0.518156	0.392543
0	H	0.539394	0.477886	0.893757
0	H	0.115327	0.905599	0.106729
0	H	0.395744	0.0945284	0.608674
0	H	0.895463	0.403665	0.396704
0	H	0.613706	0.592887	0.897909
0	H	0.0316636	0.915279	0.13895
0	H	0.480469	0.0812271	0.640539
0	H	0.980575	0.416862	0.364944
0	H	0.52806	0.579452	0.866295
0	O	0.844756	0.0376941	0.0676991
0	O	0.665286	0.95968	0.56889
0	O	0.16498	0.537766	0.436682
0	O	0.344649	0.456723	0.93791
0	C	0.472857	0.700497	0.227589
0	C	0.0371992	0.297641	0.728706
0	C	0.536849	0.20073	0.276993
0	C	0.973127	0.795573	0.778216
0	H	0.465417	0.783685	0.223672
0	H	0.0445811	0.214423	0.724836
0	H	0.544024	0.283914	0.280974
0	H	0.966494	0.712379	0.782287
0	C	0.545356	0.663795	0.248825
0	C	0.96473	0.334524	0.749923
0	C	0.464386	0.163981	0.255757
0	C	0.0457448	0.832595	0.757065
0	H	0.594331	0.718338	0.261212
0	H	0.91576	0.280103	0.762352
0	H	0.415189	0.218456	0.243432
0	H	0.0955132	0.778309	0.744883
0	C	0.555087	0.557276	0.254396
0	C	0.955042	0.441085	0.75543
0	C	0.454927	0.0574761	0.250113
0	C	0.0545637	0.939092	0.751312
0	H	0.610586	0.529042	0.271381
0	H	0.899401	0.46947	0.772343
0	H	0.399345	0.0291865	0.233156
0	H	0.110281	0.967626	0.734434
0	C	0.492283	0.487347	0.238447
0	C	0.0180833	0.51082	0.739491
0	C	0.518098	0.987629	0.26596
0	C	0.990482	0.00861811	0.766947
0	H	0.499221	0.40426	0.242794
0	H	0.0113237	0.593924	0.74384
0	H	0.511458	0.904557	0.261521
0	H	0.996587	0.0916707	0.762411
0	C	0.420219	0.523571	0.217055
0	C	0.0900922	0.474404	0.718103
0	C	0.590153	0.0239108	0.287358
0	C	0.918227	0.972071	0.788242
0	H	0.371173	0.468482	0.204957
0	H	0.139241	0.529437	0.706013
0	H	0.639447	0.96882	0.29938
0	H	0.868211	0.0269658	0.800069
0	C	0.409933	0.630569	0.21149
0	C	0.100157	0.367382	0.712537
0	C	0.600055	0.130887	0.293032
0	C	0.909032	0.865101	0.794051
0	C	0.330748	0.667387	0.188232
0	C	0.178971	0.33023	0.689201
0	C	0.679025	0.167913	0.316344
0	C	0.829976	0.827784	0.817293
0	H	0.297143	0.597838	0.176081
0	H	0.212686	0.399691	0.677031
0	H	0.712915	0.0984165	0.328444
0	H	0.795941	0.897198	0.829405
0	C	0.380802	0.735695	0.163241
0	C	0.128658	0.261965	0.664245
0	C	0.628638	0.235875	0.341369
0	C	0.880108	0.759688	0.842341
0	C	0.472381	0.689489	0.145356
0	C	0.0370947	0.30792	0.6463
0	C	0.537115	0.189458	0.359224
0	C	0.97151	0.805846	0.860306
0	H	0.492142	0.607797	0.151045
0	H	0.0171366	0.389572	0.651944
0	H	0.517395	0.107802	0.353481
0	H	0.991391	0.887514	0.854636
0	C	0.371947	0.7102	0.128333
0	C	0.13759	0.287243	0.629308
0	C	0.637491	0.210208	0.376271
0	C	0.870907	0.785192	0.877245
0	H	0.370035	0.779191	0.112577
0	H	0.139661	0.218176	0.613588
0	H	0.639276	0.279064	0.392076
0	H	0.868798	0.716154	0.892989
0	C	0.30954	0.623196	0.115836
0	C	0.200083	0.374223	0.616836
0	C	0.70014	0.12325	0.388685
0	C	0.808399	0.872183	0.8897
0	C	0.325183	0.519538	0.124834
0	C	0.184531	0.477805	0.625919
0	C	0.684439	0.0196271	0.37967
0	C	0.824004	0.975799	0.88066
0	H	0.384387	0.500281	0.141698
0	H	0.125004	0.496992	0.642685
0	H	0.624885	0.000404426	0.36291
0	H	0.883333	0.99501	0.863825
0	C	0.265717	0.440262	0.111972
0	C	0.244553	0.557069	0.61329
0	C	0.744315	0.940357	0.392364
0	C	0.764337	0.0550888	0.893437
0	H	0.278157	0.359991	0.119148
0	H	0.232303	0.637257	0.620581
0	H	0.731845	0.860098	0.385166
0	H	0.776675	0.135333	0.886201
0	C	0.190897	0.463523	0.0898212
0	C	0.319733	0.533876	0.591246
0	C	0.819633	0.963631	0.41436
0	C	0.689411	0.0318819	0.915562
0	H	0.144711	0.401469	0.0797017
0	H	0.36635	0.595926	0.581312
0	H	0.866128	0.901565	0.424342
0	H	0.643084	0.0939545	0.92562
0	C	0.175535	0.566556	0.0806131
0	C	0.334866	0.430937	0.581902
0	C	0.835057	0.0666489	0.423586
0	C	0.674159	0.928879	0.924827
0	H	0.117933	0.585282	0.0630258
0	H	0.392726	0.412287	0.564386
0	H	0.893059	0.0853695	0.441054
0	H	0.616488	0.910206	0.942401
0	C	0.234085	0.646208	0.0936067
0	C	0.275755	0.351301	0.594662
0	C	0.776038	0.146266	0.410778
0	C	0.732865	0.849214	0.911912
0	H	0.221589	0.726841	0.0863749
0	H	0.28803	0.270765	0.587301
0	H	0.78851	0.226865	0.418053
0	H	0.720493	0.768617	0.919193
0	C	0.384221	0.845144	0.171263
0	C	0.125378	0.152503	0.672272
0	C	0.625063	0.345367	0.333402
0	C	0.883348	0.650143	0.834416
0	N	0.386074	0.931861	0.178263
0	N	0.12381	0.0657693	0.679258
0	N	0.623177	0.432103	0.326424
0	N	0.884834	0.563315	0.827534
0	C	0.239745	0.722029	0.205256
0	C	0.270042	0.275113	0.706075
0	C	0.769765	0.223346	0.299413
0	C	0.73929	0.772245	0.80036
0	H	0.27087	0.789896	0.218681
0	H	0.238863	0.207177	0.719453
0	H	0.738293	0.291334	0.286116
0	H	0.77076	0.704116	0.787133
0	N	0.169192	0.765022	0.180961
0	N	0.340205	0.232261	0.681641
0	N	0.840151	0.266194	0.323789
0	N	0.668812	0.729709	0.824768
0	C	0.101257	0.847397	0.193992
0	C	0.407775	0.149193	0.694443
0	C	0.907657	0.349147	0.310883
0	C	0.601491	0.646335	0.812026
0	H	0.0467947	0.820543	0.211733
0	H	0.463124	0.175397	0.712009
0	H	0.962541	0.32283	0.293196
0	H	0.546577	0.672112	0.794276
0	H	0.0573144	0.882501	0.17452
0	H	0.450842	0.113839	0.674809
0	H	0.951201	0.384386	0.330435
0	H	0.557939	0.611525	0.831646
0	H	0.148601	0.909717	0.204052
0	H	0.360299	0.0871425	0.704578
0	H	0.860046	0.411257	0.300837
0	H	0.649175	0.584003	0.802135
0	C	0.107285	0.684365	0.164687
0	C	0.402488	0.313046	0.665548
0	C	0.902517	0.185392	0.339845
0	C	0.606202	0.810682	0.840658
0	H	0.157204	0.620764	0.156588
0	H	0.352688	0.376731	0.657435
0	H	0.852704	0.121924	0.348103
0	H	0.655824	0.874493	0.848788
0	H	0.0738521	0.719797	0.143621
0	H	0.43635	0.27791	0.644506
0	H	0.936884	0.220634	0.360794
0	H	0.571918	0.775799	0.861675
0	H	0.0453505	0.650339	0.178649
0	H	0.464137	0.34691	0.679668
0	H	0.963792	0.1512	0.325652
0	H	0.544797	0.844305	0.826391
0	C	0.189912	0.646876	0.228435
0	C	0.320576	0.349693	0.729275
0	C	0.820148	0.149099	0.276086
0	C	0.689042	0.846335	0.776966
0	H	0.125195	0.683231	0.24038
0	H	0.38483	0.312537	0.741232
0	H	0.884467	0.186368	0.264191
0	H	0.624629	0.809096	0.765114
0	H	0.244072	0.621951	0.246535
0	H	0.266663	0.375266	0.747353
0	H	0.766196	0.124006	0.257959
0	H	0.743049	0.871144	0.758818
0	H	0.161694	0.576025	0.217245
0	H	0.349669	0.420163	0.718076
0	H	0.849104	0.0783137	0.287145
0	H	0.66024	0.917272	0.787974
0	C	0.56513	0.750698	0.137414
0	C	0.944495	0.246435	0.63836
0	C	0.444355	0.25059	0.367228
0	C	0.0641042	0.744598	0.868386
0	O	0.647301	0.685659	0.139216
0	O	0.861954	0.310895	0.640461
0	O	0.362139	0.1857	0.365194
0	O	0.146095	0.810038	0.867229
0	C	0.750185	0.7271	0.133046
0	C	0.759216	0.268944	0.634339
0	C	0.259215	0.22701	0.371355
0	C	0.248903	0.768597	0.873482
0	H	0.745121	0.809387	0.125674
0	H	0.764552	0.186228	0.627384
0	H	0.264319	0.308772	0.379254
0	H	0.243652	0.686724	0.881262
0	H	0.776976	0.677806	0.113615
0	H	0.732481	0.317051	0.61463
0	H	0.231808	0.176421	0.39041
0	H	0.275859	0.818912	0.892663
0	C	0.810713	0.712924	0.162721
0	C	0.698352	0.284627	0.66389
0	C	0.199415	0.215036	0.341457
0	C	0.30939	0.780978	0.843727
0	H	0.769554	0.745107	0.182829
0	H	0.739183	0.253093	0.68416
0	H	0.24008	0.250591	0.321767
0	H	0.268394	0.747182	0.823826
0	H	0.884378	0.753586	0.161358
0	H	0.624535	0.244218	0.662595
0	H	0.124826	0.25376	0.343143
0	H	0.383216	0.740705	0.845334
0	H	0.825551	0.630868	0.167772
0	H	0.683814	0.366973	0.668609
0	H	0.186579	0.133295	0.335506
0	H	0.323854	0.862738	0.838167
0	O	0.57263	0.841101	0.129584
0	O	0.937367	0.156197	0.630335
0	O	0.436906	0.340764	0.37529
0	O	0.0716308	0.653859	0.875868
0	C	0.287509	0.863141	0.965652
0	C	0.224406	0.134929	0.465354
0	C	0.724341	0.362834	0.540503
0	C	0.788239	0.63247	0.0400989
0	H	0.263915	0.803549	0.98213
0	H	0.248498	0.195376	0.481488
0	H	0.747873	0.302271	0.524339
0	H	0.764682	0.692165	0.0236499
0	C	0.374847	0.847763	0.947551
0	C	0.137269	0.149906	0.447133
0	C	0.637429	0.348257	0.558856
0	C	0.875652	0.647635	0.05818
0	H	0.420474	0.77757	0.950774
0	H	0.0921953	0.220638	0.44996
0	H	0.591998	0.27773	0.556096
0	H	0.921355	0.717785	0.0549675
0	C	0.404949	0.922866	0.925898
0	C	0.106586	0.0736631	0.42592
0	C	0.607451	0.424589	0.580132
0	C	0.905785	0.572316	0.0797566
0	H	0.473064	0.910929	0.911758
0	H	0.0385216	0.0852076	0.411734
0	H	0.539588	0.413354	0.594425
0	H	0.97406	0.583997	0.0938306
0	C	0.347854	0.0140047	0.922646
0	C	0.162906	0.981828	0.423214
0	C	0.664316	0.516102	0.582779
0	C	0.848565	0.48126	0.0829933
0	H	0.370964	0.0725528	0.905653
0	H	0.13943	0.922452	0.406529
0	H	0.641485	0.575516	0.59953
0	H	0.871649	0.42256	0.0999372
0	C	0.261672	0.0307845	0.941192
0	C	0.248798	0.965452	0.441921
0	C	0.749931	0.5321	0.56393
0	C	0.762304	0.464721	0.0644654
0	H	0.217945	0.102202	0.938432
0	H	0.291821	0.893422	0.439642
0	H	0.793339	0.603883	0.566164
0	H	0.718499	0.393361	0.0672045
0	C	0.231387	0.955546	0.962954
0	C	0.279665	0.0418249	0.463252
0	C	0.780065	0.455669	0.542525
0	C	0.732075	0.540071	0.0427347
0	C	0.139439	0.975586	0.983516
0	C	0.371323	0.0224003	0.483995
0	C	0.871491	0.474697	0.521658
0	C	0.640277	0.520216	0.0220944
0	H	0.119162	0.0604725	0.982476
0	H	0.39156	0.937464	0.483225
0	H	0.89191	0.559582	0.52234
0	H	0.620019	0.435326	0.0230612
0	C	0.165121	0.950493	0.0175702
0	C	0.345219	0.0485965	0.517956
0	C	0.845105	0.448275	0.487734
0	C	0.666241	0.545649	0.988085
0	C	0.267287	0.99139	0.0307364
0	C	0.242857	0.00825666	0.531129
0	C	0.742713	0.488599	0.474585
0	C	0.768635	0.505125	0.975009
0	H	0.314933	0.0386857	0.014776
0	H	0.195357	0.960684	0.515196
0	H	0.695283	0.536286	0.490501
0	H	0.816189	0.457865	0.991002
0	C	0.166759	0.0364413	0.0425416
0	C	0.343187	0.96329	0.543129
0	C	0.843	0.533373	0.462491
0	C	0.668365	0.459895	0.963063
0	H	0.143572	0.0122939	0.0662811
0	H	0.366265	0.988056	0.566822
0	H	0.865856	0.5084	0.438795
0	H	0.64548	0.48413	0.939307
0	C	0.134803	0.144827	0.0355208
0	C	0.374768	0.854559	0.536446
0	C	0.874684	0.642125	0.469089
0	C	0.636374	0.351469	0.970023
0	C	0.197608	0.213665	0.0189349
0	C	0.311975	0.785665	0.51988
0	C	0.812064	0.711098	0.48569
0	C	0.698806	0.282702	0.986765
0	H	0.272806	0.188832	0.0109303
0	H	0.237181	0.810772	0.511624
0	H	0.737269	0.686056	0.493983
0	H	0.773835	0.307549	0.994899
0	C	0.164184	0.314711	0.012724
0	C	0.344856	0.6842	0.514036
0	C	0.845133	0.812515	0.491524
0	C	0.665224	0.181701	0.992963
0	H	0.213032	0.367683	0.999655
0	H	0.296066	0.631187	0.500967
0	H	0.79649	0.865547	0.504636
0	H	0.713744	0.128785	0.00616874
0	C	0.0684722	0.347979	0.0231906
0	C	0.439988	0.650562	0.524871
0	C	0.940237	0.846034	0.480627
0	C	0.569763	0.148392	0.98231
0	H	0.0423902	0.426762	0.0182484
0	H	0.465582	0.571416	0.520258
0	H	0.966024	0.925108	0.485275
0	H	0.543598	0.0696313	0.987224
0	C	0.00606624	0.279808	0.0399943
0	C	0.502411	0.718819	0.541643
0	C	0.00238244	0.77776	0.463773
0	C	0.507748	0.216466	0.965335
0	H	0.931885	0.305871	0.0485537
0	H	0.576188	0.69251	0.550466
0	H	0.0760666	0.804015	0.454873
0	H	0.433739	0.190387	0.95663
0	C	0.0386759	0.178536	0.0460807
0	C	0.470349	0.820505	0.547352
0	C	0.970168	0.676104	0.458081
0	C	0.540494	0.317712	0.959279
0	H	0.988476	0.125304	0.0588234
0	H	0.520543	0.873771	0.560072
0	H	0.0202039	0.62283	0.4453
0	H	0.490541	0.370862	0.946424
0	C	0.131996	0.848504	0.0278085
0	C	0.37857	0.150656	0.52807
0	C	0.878186	0.346085	0.477671
0	C	0.632733	0.647485	0.97784
0	N	0.105663	0.766908	0.0357152
0	N	0.405073	0.232185	0.535986
0	N	0.904426	0.264424	0.469803
0	N	0.605915	0.728872	0.969897
0	C	0.0451397	0.913922	0.970865
0	C	0.465892	0.0834974	0.471267
0	C	0.966066	0.413524	0.534344
0	C	0.545823	0.581748	0.0346843
0	H	0.0668624	0.829458	0.969442
0	H	0.444421	0.168004	0.46964
0	H	0.944436	0.329108	0.536042
0	H	0.567402	0.666222	0.0360517
0	N	0.960477	0.92206	0.994241
0	N	0.550393	0.075749	0.494704
0	N	0.0503701	0.420958	0.510828
0	N	0.461335	0.573258	0.0112703
0	C	0.881884	0.839533	0.989324
0	C	0.629192	0.157986	0.489629
0	C	0.129178	0.33875	0.515911
0	C	0.382598	0.655731	0.0160563
0	H	0.844436	0.841071	0.966347
0	H	0.666928	0.155636	0.466701
0	H	0.167251	0.341414	0.538778
0	H	0.344586	0.654052	0.0389505
0	H	0.821828	0.847824	0.00713901
0	H	0.689008	0.15016	0.507552
0	H	0.188723	0.346253	0.497894
0	H	0.323009	0.647465	0.998096
0	H	0.917659	0.762694	0.99274
0	H	0.593523	0.23501	0.492794
0	H	0.0934433	0.261698	0.512907
0	H	0.418378	0.732601	0.0127531
0	C	0.911233	0.0264376	0.995193
0	C	0.599474	0.971319	0.495939
0	C	0.0994469	0.525381	0.509486
0	C	0.412143	0.468861	0.0103504
0	H	0.969664	0.0880301	0.995191
0	H	0.540916	0.909857	0.496261
0	H	0.0408916	0.58684	0.509271
0	H	0.470576	0.40729	0.0103164
0	H	0.86974	0.0328046	0.0176035
0	H	0.641371	0.965704	0.518308
0	H	0.140857	0.531002	0.487038
0	H	0.37057	0.462457	0.987953
0	H	0.857413	0.0417381	0.976079
0	H	0.652898	0.955178	0.476776
0	H	0.15326	0.541546	0.528538
0	H	0.358381	0.453543	0.0294848
0	C	0.0180391	0.951394	0.938013
0	C	0.493058	0.0451985	0.438498
0	C	0.993774	0.452025	0.567046
0	C	0.518763	0.544487	0.0675571
0	H	0.948212	0.913594	0.929501
0	H	0.56269	0.0830151	0.42984
0	H	0.0633996	0.414002	0.575643
0	H	0.448761	0.582051	0.0760213
0	H	0.079184	0.934103	0.921325
0	H	0.431731	0.061713	0.421798
0	H	0.932631	0.435921	0.583832
0	H	0.57984	0.562206	0.0842382
0	H	0.00426385	0.0352928	0.937046
0	H	0.507141	0.961335	0.437736
0	H	0.00824271	0.535824	0.567712
0	H	0.505381	0.46054	0.0685978
0	C	0.331049	0.926304	0.0518689
0	C	0.178759	0.0732658	0.5522
0	C	0.678564	0.423519	0.453557
0	C	0.83255	0.570434	0.953981
0	O	0.429184	0.927191	0.0413749
0	O	0.0808053	0.0725036	0.541536
0	O	0.5807	0.424024	0.464307
0	O	0.930365	0.570327	0.964765
0	C	0.506775	0.870291	0.0596188
0	C	0.00251799	0.128138	0.559863
0	C	0.502475	0.368222	0.44602
0	C	0.00840775	0.626988	0.946638
0	H	0.486652	0.787127	0.0585296
0	H	0.0200471	0.21182	0.558075
0	H	0.519632	0.284505	0.448083
0	H	0.98994	0.710472	0.948442
0	H	0.503069	0.898348	0.0839653
0	H	0.00835564	0.102105	0.584372
0	H	0.508738	0.393469	0.421446
0	H	0.00337573	0.60105	0.922102
0	C	0.605836	0.896618	0.0433332
0	C	0.903336	0.0976979	0.544308
0	C	0.403222	0.399545	0.461381
0	C	0.107519	0.597503	0.962404
0	H	0.601363	0.880254	0.0181987
0	H	0.905788	0.112494	0.519066
0	H	0.405097	0.384864	0.486634
0	H	0.104788	0.613456	0.987583
0	H	0.669685	0.851828	0.0529967
0	H	0.838746	0.141127	0.554074
0	H	0.338524	0.356558	0.451516
0	H	0.172106	0.64063	0.952523
0	H	0.624525	0.97955	0.0457228
0	H	0.887256	0.0144254	0.547289
0	H	0.387886	0.48294	0.458321
0	H	0.123725	0.514115	0.959775
0	O	0.304973	0.877562	0.0748022
0	O	0.204373	0.121443	0.575279
0	O	0.704016	0.375496	0.430433
0	O	0.806823	0.618663	0.930922
