#******************************************
#
# CIF file created by Zeo++
# Zeo++ is an open source package to
# analyze microporous materials
#
#*******************************************

_cell_length_a		31.0024(0)
_cell_length_b		31.2722(0)
_cell_length_c		9.18148(0)
_cell_angle_alpha		90(0)
_cell_angle_beta		90(0)
_cell_angle_gamma		119.647(0)

_symmetry_space_group_name_H-M		'P1'
_symmetry_Int_Tables_number		1
_symmetry_cell_setting		Monoclinic

loop_
_symmetry_equiv_pos_as_xyz
'+x,+y,+z'

loop_
_atom_site_label
_atom_site_type_symbol
_atom_site_fract_x
_atom_site_fract_y
_atom_site_fract_z
0	C	0.467223	0.495802	0.115529
0	C	0.522427	0.978045	0.121539
0	C	0.0402755	0.549923	0.108589
0	C	0.552546	0.519482	0.943025
0	C	0.498929	0.0391244	0.946898
0	C	0.979999	0.463814	0.940836
0	C	0.129419	0.831492	0.445855
0	C	0.189698	0.310524	0.444447
0	C	0.708711	0.88275	0.449413
0	C	0.214794	0.855627	0.27254
0	C	0.165413	0.37171	0.273397
0	C	0.646951	0.798332	0.277166
0	C	0.805372	0.159368	0.786132
0	C	0.854765	0.643025	0.784254
0	C	0.37328	0.216916	0.782377
0	C	0.890644	0.183356	0.612457
0	C	0.830466	0.704315	0.613736
0	C	0.31154	0.132399	0.610464
0	C	0.479197	0.526571	0.993935
0	C	0.491163	0.959282	0.000398323
0	C	0.0592862	0.537746	0.987244
0	C	0.540592	0.488731	0.0646433
0	C	0.530226	0.057889	0.0678946
0	C	0.960971	0.476026	0.0621218
0	C	0.14121	0.862268	0.324327
0	C	0.15909	0.292179	0.321894
0	C	0.727279	0.870477	0.327146
0	C	0.203019	0.824888	0.394129
0	C	0.195967	0.390045	0.396047
0	C	0.628392	0.810627	0.399402
0	C	0.816984	0.189874	0.664012
0	C	0.824134	0.624749	0.661755
0	C	0.391847	0.204561	0.660286
0	C	0.878967	0.152743	0.734332
0	C	0.861094	0.722593	0.736283
0	C	0.292953	0.144731	0.732558
0	C	0.498287	0.476556	0.14833
0	C	0.54232	0.0280485	0.152614
0	C	0.990405	0.518631	0.143391
0	C	0.521502	0.538753	0.910244
0	C	0.479057	0.989109	0.915714
0	C	0.0298618	0.495129	0.906028
0	C	0.160739	0.812509	0.478123
0	C	0.208518	0.360166	0.478798
0	C	0.658499	0.852543	0.482572
0	C	0.183572	0.874749	0.24048
0	C	0.146587	0.322068	0.23905
0	C	0.697114	0.828688	0.2436
0	C	0.83664	0.140313	0.818309
0	C	0.8736	0.69265	0.818848
0	C	0.323125	0.186557	0.81599
0	C	0.859218	0.202195	0.579858
0	C	0.811585	0.654676	0.579239
0	C	0.36176	0.162589	0.577334
0	B	0.42003	0.484849	0.214724
0	B	0.533151	0.942	0.221524
0	B	0.0760297	0.596895	0.207347
0	B	0.59967	0.530312	0.843626
0	B	0.488195	0.0750047	0.846167
0	B	0.944277	0.416609	0.842986
0	B	0.0820305	0.819839	0.545171
0	B	0.200307	0.274382	0.544258
0	B	0.745239	0.92853	0.550788
0	B	0.261631	0.86596	0.172371
0	B	0.15507	0.407953	0.173337
0	B	0.610408	0.752026	0.177454
0	B	0.758867	0.149435	0.887267
0	B	0.865282	0.60674	0.883583
0	B	0.409818	0.263337	0.881728
0	B	0.937942	0.19487	0.51288
0	B	0.819948	0.740535	0.514
0	B	0.275022	0.0866077	0.509134
0	B	0.445493	0.547256	0.93864
0	B	0.469998	0.905313	0.945577
0	B	0.113304	0.571304	0.930879
0	B	0.574246	0.467998	0.120033
0	B	0.55168	0.111974	0.121917
0	B	0.906997	0.44252	0.118907
0	B	0.107158	0.882619	0.269543
0	B	0.138931	0.238558	0.265217
0	B	0.781585	0.903169	0.271701
0	B	0.236601	0.80413	0.449723
0	B	0.216096	0.44358	0.453418
0	B	0.574319	0.777638	0.456197
0	B	0.783223	0.210373	0.608025
0	B	0.803855	0.571197	0.604335
0	B	0.445931	0.237533	0.603512
0	B	0.913003	0.132429	0.789541
0	B	0.881279	0.776193	0.793182
0	B	0.238618	0.112088	0.787837
0	B	0.488141	0.438878	0.273176
0	B	0.580627	0.055297	0.276808
0	B	0.962826	0.528626	0.26946
0	B	0.531704	0.576401	0.785259
0	B	0.440972	0.961887	0.790978
0	B	0.0575827	0.485032	0.780622
0	B	0.151125	0.77502	0.60305
0	B	0.246135	0.387286	0.604528
0	B	0.631094	0.863468	0.60715
0	B	0.193722	0.912663	0.116373
0	B	0.108668	0.295106	0.113866
0	B	0.724361	0.817924	0.118216
0	B	0.826442	0.102336	0.942259
0	B	0.911546	0.719574	0.944008
0	B	0.29584	0.19729	0.941329
0	B	0.868711	0.239419	0.454219
0	B	0.774016	0.627651	0.453341
0	B	0.389217	0.151624	0.453012
0	C	0.421652	0.465734	0.379328
0	C	0.553007	0.962795	0.385558
0	C	0.0552923	0.595558	0.372068
0	C	0.598043	0.54946	0.679084
0	C	0.46882	0.0541557	0.681806
0	C	0.965107	0.417543	0.678712
0	C	0.0846132	0.802219	0.711172
0	C	0.218798	0.294775	0.7094
0	C	0.723965	0.927244	0.714663
0	C	0.260753	0.886386	0.00912917
0	C	0.135668	0.387312	0.0089697
0	C	0.63091	0.753183	0.0126202
0	C	0.759888	0.129052	0.0504998
0	C	0.884984	0.627289	0.0478254
0	C	0.38935	0.262201	0.0465806
0	C	0.935295	0.212385	0.346802
0	C	0.801442	0.720183	0.34884
0	C	0.296339	0.0878692	0.345342
0	H	0.392601	0.46577	0.445542
0	H	0.552932	0.933995	0.452035
0	H	0.0839686	0.624604	0.437864
0	H	0.627217	0.54965	0.612929
0	H	0.468739	0.0828175	0.615014
0	H	0.936448	0.388374	0.613242
0	H	0.0557375	0.802563	0.777526
0	H	0.218104	0.265811	0.776544
0	H	0.752866	0.955603	0.78168
0	H	0.289855	0.886595	0.942542
0	H	0.135642	0.416045	0.942372
0	H	0.601822	0.724654	0.946479
0	H	0.731157	0.129345	0.117691
0	H	0.885026	0.598478	0.113987
0	H	0.418442	0.290752	0.112668
0	H	0.964343	0.212301	0.280643
0	H	0.802068	0.749135	0.281803
0	H	0.267511	0.0594198	0.27839
0	H	0.457453	0.492481	0.425374
0	H	0.526299	0.972168	0.431764
0	H	0.0471603	0.560216	0.418449
0	H	0.562324	0.522605	0.632838
0	H	0.495832	0.0450985	0.63618
0	H	0.973318	0.4528	0.631522
0	H	0.120506	0.829487	0.755416
0	H	0.191768	0.304094	0.75351
0	H	0.714505	0.8915	0.761074
0	H	0.224978	0.860236	0.961568
0	H	0.162566	0.378212	0.962593
0	H	0.639956	0.788855	0.96657
0	H	0.795898	0.154932	0.0973533
0	H	0.858195	0.63643	0.0947963
0	H	0.380344	0.226538	0.0926134
0	H	0.899518	0.184924	0.302371
0	H	0.828483	0.710914	0.304549
0	H	0.30569	0.123561	0.298754
0	H	0.417184	0.42904	0.38155
0	H	0.590139	0.994512	0.386834
0	H	0.0225603	0.599756	0.374302
0	H	0.602292	0.586065	0.677018
0	H	0.431819	0.0222501	0.679884
0	H	0.997817	0.413303	0.677347
0	H	0.0804658	0.765671	0.716028
0	H	0.255918	0.32645	0.712898
0	H	0.69195	0.932618	0.715603
0	H	0.265534	0.923201	0.00968134
0	H	0.0986545	0.355439	0.00721573
0	H	0.663112	0.748095	0.0101777
0	H	0.754601	0.09204	0.0500643
0	H	0.922034	0.659108	0.0493135
0	H	0.357124	0.267249	0.0490368
0	H	0.939149	0.24881	0.34186
0	H	0.764342	0.688489	0.345372
0	H	0.328439	0.0826312	0.344614
0	C	0.412719	0.532991	0.229123
0	C	0.484124	0.887498	0.237361
0	C	0.131686	0.603806	0.221679
0	C	0.606788	0.482055	0.829087
0	C	0.537017	0.129662	0.830837
0	C	0.888641	0.409698	0.827918
0	C	0.0727809	0.866859	0.5569
0	C	0.151606	0.219546	0.557405
0	C	0.799834	0.932971	0.567082
0	C	0.26694	0.81672	0.154706
0	C	0.204302	0.462392	0.158855
0	C	0.555294	0.746522	0.16363
0	C	0.75406	0.198958	0.904927
0	C	0.816045	0.552322	0.898448
0	C	0.465004	0.26901	0.895462
0	C	0.947052	0.147757	0.501346
0	C	0.868732	0.795321	0.5009
0	C	0.220433	0.0821692	0.4926
0	H	0.394652	0.538197	0.1348
0	H	0.47824	0.86416	0.143279
0	H	0.154706	0.62141	0.126944
0	H	0.624998	0.476867	0.923081
0	H	0.542558	0.152946	0.924814
0	H	0.865559	0.392298	0.922693
0	H	0.0543774	0.87109	0.461765
0	H	0.146666	0.19651	0.463265
0	H	0.823718	0.950563	0.473895
0	H	0.284493	0.810155	0.247862
0	H	0.209692	0.485789	0.252432
0	H	0.531837	0.72862	0.25738
0	H	0.736415	0.205532	0.812035
0	H	0.810397	0.528961	0.804589
0	H	0.488362	0.286801	0.801442
0	H	0.965644	0.143635	0.596188
0	H	0.873695	0.81839	0.59498
0	H	0.196464	0.0644852	0.585557
0	H	0.449457	0.564927	0.24293
0	H	0.452313	0.892951	0.251666
0	H	0.127336	0.567321	0.236116
0	H	0.569982	0.450168	0.815939
0	H	0.569001	0.124454	0.817168
0	H	0.893017	0.446162	0.812651
0	H	0.109004	0.899513	0.570866
0	H	0.119401	0.224474	0.569718
0	H	0.793903	0.895821	0.57951
0	H	0.229636	0.785669	0.140689
0	H	0.236165	0.456889	0.146982
0	H	0.560559	0.783446	0.151683
0	H	0.791502	0.229855	0.91807
0	H	0.78425	0.557886	0.911334
0	H	0.459833	0.232138	0.90794
0	H	0.91077	0.115118	0.488239
0	H	0.900887	0.790302	0.488764
0	H	0.226355	0.119322	0.480379
0	H	0.39091	0.530192	0.32508
0	H	0.486861	0.868646	0.333423
0	H	0.150613	0.625574	0.317221
0	H	0.628367	0.484705	0.732719
0	H	0.5343	0.148421	0.734514
0	H	0.869769	0.387754	0.732602
0	H	0.0504795	0.863686	0.652038
0	H	0.153923	0.200575	0.653822
0	H	0.81873	0.953693	0.66418
0	H	0.288266	0.819188	0.0579139
0	H	0.202177	0.481237	0.0619248
0	H	0.536264	0.725659	0.0668699
0	H	0.733031	0.196808	0.0021021
0	H	0.818345	0.533396	0.994951
0	H	0.484093	0.290061	0.991914
0	H	0.969094	0.150725	0.405763
0	H	0.866496	0.814297	0.404384
0	H	0.201626	0.0615282	0.39531
0	C	0.395653	0.512321	0.853997
0	C	0.505064	0.890001	0.861989
0	C	0.127039	0.620621	0.846227
0	C	0.62417	0.502936	0.204331
0	C	0.516856	0.127632	0.205312
0	C	0.893238	0.39328	0.204041
0	C	0.0575154	0.847537	0.184238
0	C	0.174694	0.224619	0.179801
0	C	0.796759	0.953193	0.18929
0	C	0.286727	0.838904	0.53329
0	C	0.180122	0.457734	0.536793
0	C	0.560131	0.728182	0.540752
0	C	0.733043	0.17534	0.525134
0	C	0.83962	0.556923	0.520263
0	C	0.460084	0.286901	0.51849
0	C	0.962709	0.167621	0.874413
0	C	0.845508	0.790173	0.878391
0	C	0.223329	0.0620538	0.870363
0	H	0.391404	0.531174	0.760009
0	H	0.486107	0.867273	0.76772
0	H	0.149781	0.624607	0.751222
0	H	0.628868	0.483942	0.297175
0	H	0.536078	0.15085	0.2985
0	H	0.86993	0.389029	0.297838
0	H	0.0526447	0.866532	0.0916993
0	H	0.155887	0.201904	0.0853302
0	H	0.819634	0.95724	0.0945394
0	H	0.290941	0.819984	0.627186
0	H	0.198746	0.480982	0.630479
0	H	0.536977	0.724036	0.634859
0	H	0.728907	0.193943	0.430279
0	H	0.820902	0.53396	0.426173
0	H	0.482887	0.290743	0.423755
0	H	0.968178	0.14855	0.965643
0	H	0.864298	0.812946	0.97279
0	H	0.199956	0.0577615	0.964055
0	H	0.364363	0.502654	0.926979
0	H	0.514241	0.868255	0.935554
0	H	0.148664	0.651679	0.918682
0	H	0.65532	0.513064	0.130377
0	H	0.507368	0.148931	0.130862
0	H	0.87217	0.362208	0.13112
0	H	0.02615	0.836831	0.257834
0	H	0.184819	0.203249	0.251927
0	H	0.818695	0.98374	0.263085
0	H	0.317759	0.84812	0.459704
0	H	0.169949	0.478639	0.462894
0	H	0.538773	0.697234	0.467688
0	H	0.702033	0.166526	0.598411
0	H	0.84956	0.535672	0.593482
0	H	0.481794	0.317953	0.590889
0	H	0.993913	0.178951	0.799751
0	H	0.835392	0.811497	0.806045
0	H	0.201868	0.0315502	0.795965
0	H	0.394818	0.478759	0.818184
0	H	0.539199	0.922153	0.82671
0	H	0.0938863	0.62149	0.812052
0	H	0.624773	0.536243	0.241674
0	H	0.482855	0.0956062	0.241998
0	H	0.92636	0.392682	0.240075
0	H	0.057378	0.814512	0.146326
0	H	0.208321	0.257346	0.144595
0	H	0.764207	0.955157	0.154888
0	H	0.288057	0.872682	0.569223
0	H	0.146545	0.425113	0.572874
0	H	0.593062	0.727138	0.576416
0	H	0.731571	0.141364	0.49067
0	H	0.873328	0.589483	0.484591
0	H	0.42714	0.288065	0.483677
0	H	0.962461	0.200284	0.914058
0	H	0.811874	0.757466	0.913649
0	H	0.255831	0.0602587	0.906303
0	C	0.461556	0.603763	0.950849
0	C	0.41291	0.865511	0.95673
0	C	0.154548	0.555575	0.942973
0	C	0.558105	0.411471	0.10805
0	C	0.608832	0.151474	0.109614
0	C	0.865706	0.458186	0.106796
0	C	0.122874	0.938996	0.283646
0	C	0.082191	0.197898	0.276953
0	C	0.821751	0.886002	0.282568
0	C	0.2202	0.747533	0.438928
0	C	0.27296	0.484051	0.443645
0	C	0.533373	0.79379	0.444973
0	C	0.799381	0.266929	0.617691
0	C	0.74697	0.530821	0.614703
0	C	0.486859	0.221372	0.615167
0	C	0.89724	0.0760291	0.776047
0	C	0.938047	0.816795	0.781619
0	C	0.198475	0.129271	0.776537
0	H	0.493982	0.624107	0.020764
0	H	0.392142	0.877732	0.0247406
0	H	0.143011	0.523322	0.0124478
0	H	0.525499	0.391066	0.0388457
0	H	0.62924	0.138919	0.0412673
0	H	0.877201	0.490452	0.0374394
0	H	0.155205	0.959152	0.354028
0	H	0.061771	0.208637	0.351847
0	H	0.809618	0.853815	0.352836
0	H	0.187924	0.727182	0.368584
0	H	0.294018	0.472678	0.37363
0	H	0.544688	0.825534	0.37346
0	H	0.831825	0.28758	0.687268
0	H	0.726052	0.542281	0.685005
0	H	0.475516	0.189695	0.687005
0	H	0.864714	0.0557442	0.706474
0	H	0.95844	0.806008	0.706776
0	H	0.210602	0.161353	0.705822
0	H	0.430833	0.607555	0.993945
0	H	0.408857	0.831395	0.00143863
0	H	0.188627	0.586045	0.986738
0	H	0.58871	0.407638	0.0641504
0	H	0.613026	0.185615	0.0646684
0	H	0.831687	0.427685	0.062844
0	H	0.0919903	0.942394	0.327354
0	H	0.0788782	0.163274	0.314077
0	H	0.856481	0.915968	0.324808
0	H	0.250916	0.743451	0.397361
0	H	0.276499	0.518271	0.401667
0	H	0.498849	0.763163	0.404067
0	H	0.768666	0.27093	0.659719
0	H	0.743383	0.496568	0.656577
0	H	0.521408	0.25202	0.655868
0	H	0.928016	0.0725951	0.731596
0	H	0.941413	0.851436	0.744437
0	H	0.163724	0.0992555	0.734603
0	H	0.469995	0.619944	0.842029
0	H	0.396984	0.857579	0.847399
0	H	0.162719	0.547482	0.834073
0	H	0.549936	0.395364	0.216963
0	H	0.625011	0.159462	0.218626
0	H	0.857435	0.466192	0.215674
0	H	0.131321	0.955595	0.175389
0	H	0.0653025	0.191697	0.1691
0	H	0.829013	0.877092	0.173569
0	H	0.211332	0.731589	0.548023
0	H	0.288921	0.491395	0.552895
0	H	0.52609	0.802846	0.553729
0	H	0.807868	0.282598	0.508236
0	H	0.730893	0.523483	0.505607
0	H	0.494112	0.212174	0.50656
0	H	0.889105	0.0595846	0.884501
0	H	0.954918	0.822983	0.889496
0	H	0.191255	0.138356	0.885353
0	C	0.519637	0.454184	0.418339
0	C	0.56549	0.0716318	0.422031
0	C	0.94825	0.497354	0.414538
0	C	0.500187	0.561023	0.640141
0	C	0.456401	0.945673	0.646002
0	C	0.0722281	0.516028	0.635043
0	C	0.182623	0.791082	0.748135
0	C	0.230151	0.403141	0.749063
0	C	0.614655	0.832306	0.752398
0	C	0.162286	0.897669	0.971164
0	C	0.123937	0.2793	0.967948
0	C	0.740457	0.849074	0.97298
0	C	0.857858	0.117025	0.0875016
0	C	0.896234	0.735221	0.09013
0	C	0.279793	0.166126	0.0865387
0	C	0.837104	0.223059	0.309365
0	C	0.79011	0.611836	0.308913
0	C	0.40563	0.182713	0.307617
0	H	0.532979	0.492599	0.446748
0	H	0.526772	0.0468239	0.450911
0	H	0.974216	0.484354	0.439653
0	H	0.486701	0.522543	0.612267
0	H	0.495334	0.970119	0.618725
0	H	0.0456217	0.528007	0.607413
0	H	0.19586	0.829645	0.774239
0	H	0.191064	0.378861	0.77474
0	H	0.639352	0.818041	0.780686
0	H	0.148682	0.859218	0.942557
0	H	0.16246	0.304486	0.93807
0	H	0.714857	0.862113	0.943027
0	H	0.871498	0.155419	0.116976
0	H	0.857865	0.709678	0.120623
0	H	0.305507	0.153249	0.116674
0	H	0.824043	0.1845	0.283587
0	H	0.829384	0.635677	0.284656
0	H	0.380909	0.196944	0.279312
0	H	0.498553	0.43084	0.509285
0	H	0.589171	0.0739851	0.512799
0	H	0.946169	0.518155	0.506718
0	H	0.521276	0.584186	0.548905
0	H	0.433318	0.944072	0.55446
0	H	0.0755285	0.495505	0.544087
0	H	0.161387	0.768276	0.839765
0	H	0.252754	0.404166	0.841216
0	H	0.612825	0.853711	0.843326
0	H	0.183545	0.920993	0.880378
0	H	0.0998663	0.276664	0.877928
0	H	0.743534	0.828159	0.882665
0	H	0.83651	0.0935036	0.177874
0	H	0.920623	0.738332	0.179777
0	H	0.27653	0.186953	0.176788
0	H	0.858163	0.245807	0.217414
0	H	0.76807	0.61155	0.216199
0	H	0.40744	0.161265	0.216789
0	H	0.551932	0.44941	0.40178
0	H	0.570152	0.108291	0.405013
0	H	0.911453	0.465205	0.39986
0	H	0.467979	0.565955	0.656512
0	H	0.450987	0.908692	0.66216
0	H	0.108466	0.548852	0.650818
0	H	0.214935	0.786231	0.733481
0	H	0.236039	0.440333	0.733985
0	H	0.577414	0.801	0.736145
0	H	0.130109	0.902654	0.987618
0	H	0.119861	0.242834	0.984095
0	H	0.777052	0.881286	0.990144
0	H	0.890014	0.11203	0.0707509
0	H	0.899709	0.771434	0.0737828
0	H	0.243287	0.133812	0.0692076
0	H	0.804669	0.227702	0.324069
0	H	0.783464	0.574342	0.323154
0	H	0.442875	0.214035	0.323733
0	C	0.449498	0.382139	0.250124
0	C	0.637694	0.072442	0.253092
0	C	0.943356	0.566604	0.24807
0	C	0.570253	0.63317	0.808324
0	C	0.383789	0.944447	0.813648
0	C	0.0770982	0.447146	0.803445
0	C	0.11245	0.718205	0.581496
0	C	0.303458	0.405266	0.583386
0	C	0.612941	0.90239	0.582997
0	C	0.232245	0.969361	0.140679
0	C	0.0514079	0.276666	0.138903
0	C	0.742139	0.778656	0.140762
0	C	0.787587	0.045742	0.917782
0	C	0.968805	0.738034	0.918849
0	C	0.277963	0.236477	0.918771
0	C	0.907162	0.296347	0.474603
0	C	0.716669	0.609619	0.474196
0	C	0.407396	0.112741	0.477636
0	H	0.434555	0.374295	0.140266
0	H	0.645429	0.065846	0.142496
0	H	0.951638	0.582979	0.140117
0	H	0.586218	0.640863	0.916952
0	H	0.37584	0.951445	0.923536
0	H	0.0689421	0.431144	0.911884
0	H	0.102813	0.708861	0.467686
0	H	0.311934	0.398574	0.473781
0	H	0.622594	0.91917	0.475698
0	H	0.249298	0.976645	0.247821
0	H	0.0442833	0.287046	0.245334
0	H	0.734717	0.763409	0.250122
0	H	0.77126	0.0385053	0.809644
0	H	0.975966	0.728152	0.811732
0	H	0.285183	0.25157	0.809223
0	H	0.918842	0.305674	0.587175
0	H	0.708232	0.616968	0.583071
0	H	0.398019	0.0962711	0.585363
0	H	0.46781	0.360735	0.273076
0	H	0.659898	0.111554	0.27821
0	H	0.90332	0.547522	0.265967
0	H	0.551303	0.65423	0.789581
0	H	0.361919	0.905183	0.790129
0	H	0.117113	0.46616	0.785142
0	H	0.127404	0.695858	0.625657
0	H	0.324914	0.444534	0.607438
0	H	0.572701	0.883686	0.596691
0	H	0.212756	0.990162	0.127267
0	H	0.0310497	0.236609	0.128999
0	H	0.7819	0.796262	0.118852
0	H	0.806414	0.0244381	0.934104
0	H	0.989289	0.778027	0.930637
0	H	0.238239	0.218885	0.941256
0	H	0.890709	0.318129	0.436653
0	H	0.695391	0.570175	0.452492
0	H	0.4476	0.131377	0.463052
0	H	0.419354	0.371321	0.328349
0	H	0.647997	0.0522658	0.329479
0	H	0.960646	0.595452	0.330149
0	H	0.599669	0.644605	0.727311
0	H	0.373214	0.963973	0.735682
0	H	0.0596947	0.418038	0.722169
0	H	0.0791299	0.710204	0.643063
0	H	0.314054	0.385897	0.661879
0	H	0.629373	0.930803	0.666513
0	H	0.260921	0.981591	0.0570768
0	H	0.0381574	0.291636	0.0538462
0	H	0.723021	0.749148	0.0615349
0	H	0.758386	0.0341051	0.99957
0	H	0.981844	0.722486	0.00279662
0	H	0.297215	0.266102	0.997584
0	H	0.939412	0.305186	0.406571
0	H	0.705769	0.628255	0.394016
0	H	0.390717	0.0841036	0.39485
0	N	0.371382	0.441426	0.142826
0	N	0.576447	0.935829	0.149694
0	N	0.0807741	0.645431	0.136446
0	N	0.648439	0.573651	0.915327
0	N	0.444472	0.0807938	0.916447
0	N	0.939553	0.36833	0.915753
0	N	0.0340584	0.774953	0.475263
0	N	0.244314	0.269098	0.474225
0	N	0.752366	0.978133	0.480899
0	N	0.311006	0.908136	0.245078
0	N	0.111766	0.414336	0.243828
0	N	0.604368	0.702884	0.247906
0	N	0.70911	0.107406	0.816091
0	N	0.908414	0.600345	0.81176
0	N	0.415693	0.312357	0.810871
0	N	0.986002	0.239777	0.582326
0	N	0.775985	0.745896	0.584044
0	N	0.267819	0.0369895	0.579147
0	C	0.325575	0.432772	0.186466
0	C	0.58441	0.898464	0.193155
0	C	0.117395	0.690664	0.181404
0	C	0.694179	0.582188	0.871391
0	C	0.43604	0.117678	0.871035
0	C	0.902749	0.322924	0.87286
0	C	0.987936	0.76461	0.521173
0	C	0.252581	0.23197	0.518121
0	C	0.79067	0.0224966	0.525283
0	C	0.356287	0.914782	0.203602
0	C	0.104192	0.451788	0.198674
0	C	0.566765	0.658119	0.203373
0	C	0.664149	0.101125	0.859718
0	C	0.915887	0.562682	0.85529
0	C	0.453249	0.357208	0.855027
0	C	0.0320824	0.249975	0.536475
0	C	0.767911	0.783199	0.540746
0	C	0.229668	0.992639	0.534073
0	H	0.32345	0.457791	0.268887
0	H	0.558905	0.87176	0.27532
0	H	0.144648	0.692404	0.26341
0	H	0.696178	0.557143	0.788836
0	H	0.461634	0.14442	0.789089
0	H	0.875412	0.320834	0.790524
0	H	0.985176	0.789375	0.603368
0	H	0.226953	0.20508	0.599866
0	H	0.817402	0.0227974	0.606614
0	H	0.35753	0.889287	0.121309
0	H	0.129793	0.478032	0.115778
0	H	0.540066	0.657179	0.120713
0	H	0.663501	0.126922	0.942004
0	H	0.890393	0.536323	0.938171
0	H	0.480015	0.358286	0.93772
0	H	0.0347609	0.225086	0.454596
0	H	0.79363	0.81016	0.459312
0	H	0.203118	0.992367	0.452135
0	C	0.282016	0.393506	0.130323
0	C	0.623627	0.893415	0.137116
0	C	0.121038	0.734162	0.127283
0	C	0.737831	0.621371	0.927455
0	C	0.396212	0.122143	0.924712
0	C	0.898993	0.279659	0.929456
0	C	0.944919	0.724014	0.467788
0	C	0.292169	0.227413	0.46296
0	C	0.796611	0.0669055	0.471069
0	C	0.400487	0.952645	0.261658
0	C	0.0652444	0.457427	0.253831
0	C	0.561449	0.614111	0.258976
0	C	0.619565	0.0632284	0.803853
0	C	0.95457	0.556917	0.798482
0	C	0.458434	0.401117	0.799037
0	C	0.0751591	0.290584	0.589558
0	C	0.728372	0.787823	0.596019
0	C	0.223635	0.948206	0.588404
0	H	0.245655	0.387781	0.167065
0	H	0.628796	0.862656	0.173808
0	H	0.151184	0.770034	0.165471
0	H	0.774135	0.627012	0.890454
0	H	0.390689	0.152549	0.886636
0	H	0.868675	0.243629	0.892909
0	H	0.908272	0.71703	0.506131
0	H	0.297586	0.196811	0.499778
0	H	0.828098	0.10206	0.508478
0	H	0.43636	0.956814	0.226108
0	H	0.0603621	0.488215	0.215668
0	H	0.53051	0.578638	0.221367
0	H	0.583952	0.0593345	0.841017
0	H	0.959373	0.52597	0.835516
0	H	0.489333	0.436661	0.836393
0	H	0.111771	0.297448	0.551293
0	H	0.723104	0.818559	0.559664
0	H	0.192275	0.913058	0.55042
0	C	0.285026	0.361973	0.0282063
0	C	0.655812	0.927395	0.0351843
0	C	0.086408	0.731609	0.0252392
0	C	0.734963	0.652938	0.02975
0	C	0.36386	0.0880244	0.0260599
0	C	0.933729	0.282633	0.0317698
0	C	0.948862	0.692843	0.366296
0	C	0.324386	0.261651	0.361612
0	C	0.762568	0.0662089	0.370082
0	C	0.398611	0.984751	0.363999
0	C	0.0329212	0.423963	0.356594
0	C	0.595401	0.615614	0.361794
0	C	0.62071	0.0307351	0.701521
0	C	0.986715	0.590454	0.695559
0	C	0.424411	0.399431	0.696181
0	C	0.0713061	0.32193	0.690575
0	C	0.695998	0.753462	0.696824
0	C	0.257442	0.948891	0.690287
0	H	0.251225	0.330894	0.984118
0	H	0.686782	0.924019	0.990829
0	H	0.0886011	0.765291	0.982171
0	H	0.768829	0.683952	0.0738096
0	H	0.332383	0.0909206	0.0684224
0	H	0.931443	0.249129	0.0767051
0	H	0.915484	0.660815	0.324121
0	H	0.355641	0.258622	0.318038
0	H	0.766653	0.100714	0.327305
0	H	0.432866	0.014548	0.410512
0	H	0.00209246	0.427789	0.399918
0	H	0.591798	0.581467	0.405974
0	H	0.586115	0.000892054	0.656836
0	H	0.0173105	0.586526	0.650804
0	H	0.427895	0.433495	0.651707
0	H	0.104731	0.353961	0.732542
0	H	0.664795	0.756556	0.740525
0	H	0.253309	0.914371	0.733105
0	C	0.331829	0.370983	0.98338
0	C	0.647577	0.965474	0.990809
0	C	0.0491666	0.685402	0.979074
0	C	0.688224	0.644057	0.0748103
0	C	0.372586	0.0504519	0.0724888
0	C	0.971213	0.329035	0.0757054
0	C	0.995987	0.703476	0.319408
0	C	0.31584	0.299491	0.316822
0	C	0.723543	0.0208731	0.324618
0	C	0.352347	0.978036	0.40581
0	C	0.0408102	0.385842	0.402868
0	C	0.63375	0.661344	0.40717
0	C	0.666641	0.0371387	0.657288
0	C	0.978944	0.628809	0.650997
0	C	0.386131	0.353619	0.651146
0	C	0.0242152	0.311476	0.737248
0	C	0.704302	0.715398	0.740873
0	C	0.296288	0.994219	0.736586
0	H	0.335646	0.347414	0.90269
0	H	0.671707	0.992482	0.910454
0	H	0.0216974	0.681988	0.898572
0	H	0.684523	0.667675	0.155583
0	H	0.34832	0.0233437	0.152397
0	H	0.998809	0.332796	0.15624
0	H	0.00043903	0.680099	0.23947
0	H	0.340015	0.326685	0.236897
0	H	0.696522	0.0189568	0.244764
0	H	0.34944	0.00233201	0.48583
0	H	0.01658	0.359294	0.484131
0	H	0.66075	0.66393	0.488146
0	H	0.668949	0.0125683	0.577028
0	H	0.00304873	0.655435	0.569702
0	H	0.359091	0.350889	0.570103
0	H	0.0198335	0.335023	0.81673
0	H	0.679967	0.688066	0.820229
0	H	0.323099	0.996114	0.817202
0	C	0.374418	0.410931	0.0420536
0	C	0.607659	0.968881	0.0493884
0	C	0.0470836	0.642881	0.0362046
0	C	0.64555	0.604188	0.0162548
0	C	0.413149	0.0476662	0.0164024
0	C	0.973377	0.371298	0.0162068
0	C	0.0380055	0.744805	0.375097
0	C	0.27556	0.302426	0.374561
0	C	0.719235	0.977356	0.381491
0	C	0.309112	0.939535	0.344858
0	C	0.0804333	0.381768	0.34488
0	C	0.637489	0.704429	0.34864
0	C	0.710307	0.0756859	0.716169
0	C	0.93961	0.63302	0.710676
0	C	0.382508	0.310632	0.710086
0	C	0.982144	0.27012	0.681962
0	C	0.744543	0.712411	0.683054
0	C	0.300692	0.0377491	0.6795
0	H	0.411845	0.41885	0.00775057
0	H	0.600361	0.998648	0.0155245
0	H	0.0179295	0.605911	0.00136801
0	H	0.608166	0.596365	0.0507278
0	H	0.420842	0.0183087	0.0519147
0	H	0.00270565	0.40841	0.0493312
0	H	0.0756715	0.754107	0.338869
0	H	0.267959	0.331972	0.340397
0	H	0.688748	0.941009	0.346928
0	H	0.272082	0.933505	0.376476
0	H	0.0874257	0.351906	0.380026
0	H	0.667519	0.741051	0.383042
0	H	0.747098	0.0814813	0.68277
0	H	0.932717	0.663063	0.676877
0	H	0.35252	0.273952	0.675985
0	H	0.944499	0.260953	0.718027
0	H	0.751942	0.682678	0.716615
0	H	0.331038	0.0740911	0.71468
