#******************************************
#
# CIF file created by Zeo++
# Zeo++ is an open source package to
# analyze microporous materials
#
#*******************************************

_cell_length_a		7.56525(0)
_cell_length_b		16.4241(0)
_cell_length_c		26.4666(0)
_cell_angle_alpha		90(0)
_cell_angle_beta		90(0)
_cell_angle_gamma		90(0)

_symmetry_space_group_name_H-M		'P1'
_symmetry_Int_Tables_number		1
_symmetry_cell_setting		Monoclinic

loop_
_symmetry_equiv_pos_as_xyz
'+x,+y,+z'

loop_
_atom_site_label
_atom_site_type_symbol
_atom_site_fract_x
_atom_site_fract_y
_atom_site_fract_z
0	O	0.339681	0.547566	0.946603
0	O	0.101205	0.503404	0.436243
0	O	0.666667	0.988171	0.693416
0	O	0.816635	0.0700094	0.191915
0	O	0.817236	0.141813	0.813951
0	O	0.673453	0.916869	0.308144
0	O	0.255994	0.572246	0.746252
0	O	0.244433	0.488433	0.240773
0	O	0.173835	0.169589	0.80843
0	O	0.31868	0.885691	0.302425
0	O	0.744311	0.636139	0.75933
0	O	0.774937	0.423882	0.255638
0	O	0.198294	0.302442	0.890593
0	O	0.295467	0.754702	0.385832
0	O	0.795978	0.756323	0.659178
0	O	0.695881	0.30799	0.154541
0	O	0.0090314	0.35525	0.832058
0	O	0.484774	0.70114	0.327564
0	O	0.0800807	0.732522	0.680124
0	O	0.412589	0.330336	0.176978
0	O	0.0928313	0.146729	0.0566078
0	O	0.395557	0.911526	0.551546
0	O	0.729472	0.614488	0.482045
0	O	0.776562	0.442752	0.978019
0	O	0.29239	0.138468	0.119983
0	O	0.193234	0.914917	0.614523
0	O	0.619503	0.55034	0.412658
0	O	0.812588	0.513656	0.904727
0	C	0.46676	0.735529	0.89135
0	C	0.99535	0.317947	0.377144
0	C	0.536586	0.199654	0.657186
0	C	0.953962	0.861437	0.151117
0	C	0.505044	0.64526	0.899951
0	C	0.951621	0.408287	0.383239
0	C	0.514833	0.108719	0.669421
0	C	0.972992	0.952096	0.164491
0	C	0.340646	0.598004	0.912697
0	C	0.110599	0.455299	0.401267
0	C	0.683292	0.0654913	0.686931
0	C	0.803073	0.993055	0.182644
0	C	0.180121	0.613303	0.880468
0	C	0.280139	0.441413	0.372635
0	C	0.834427	0.108187	0.696716
0	C	0.652024	0.949446	0.19029
0	C	0.145123	0.705011	0.875268
0	C	0.319975	0.350134	0.367998
0	C	0.849685	0.197386	0.686289
0	C	0.640445	0.860279	0.179483
0	C	0.980254	0.720949	0.842853
0	C	0.492032	0.33586	0.338403
0	C	0.998114	0.236848	0.717674
0	C	0.492561	0.819513	0.210467
0	C	0.934053	0.811654	0.844229
0	C	0.541161	0.245493	0.340081
0	C	0.0149897	0.327993	0.70635
0	C	0.481062	0.728028	0.199515
0	C	0.0903469	0.865389	0.827745
0	C	0.389985	0.190522	0.321472
0	C	0.836249	0.370288	0.716062
0	C	0.661789	0.688068	0.209987
0	C	0.265148	0.84384	0.855872
0	C	0.20997	0.210649	0.347147
0	C	0.695873	0.334578	0.67956
0	C	0.801074	0.724649	0.173405
0	C	0.310236	0.75135	0.854446
0	C	0.161964	0.302593	0.344054
0	C	0.668014	0.242136	0.693692
0	C	0.824052	0.817382	0.187344
0	C	0.415779	0.898066	0.835655
0	C	0.0646606	0.154871	0.32556
0	C	0.521283	0.382827	0.680398
0	C	0.978194	0.678449	0.174776
0	C	0.377821	0.989123	0.843939
0	C	0.105804	0.0645325	0.335228
0	C	0.545348	0.475808	0.6795
0	C	0.958828	0.585297	0.174498
0	C	0.200417	0.0135248	0.819721
0	C	0.286656	0.0416853	0.312589
0	C	0.668407	0.503748	0.72252
0	C	0.837349	0.55692	0.217755
0	C	0.054705	0.954819	0.841034
0	C	0.428062	0.101511	0.334984
0	C	0.853477	0.464502	0.712915
0	C	0.650027	0.593706	0.207953
0	C	0.880763	0.995539	0.825706
0	C	0.605034	0.0624345	0.320741
0	C	0.990986	0.494965	0.751208
0	C	0.514518	0.562316	0.246594
0	C	0.917186	0.0846975	0.84119
0	C	0.570998	0.97284	0.335587
0	C	0.104749	0.561799	0.731655
0	C	0.395548	0.498277	0.226001
0	C	0.120926	0.0964695	0.835494
0	C	0.367986	0.959651	0.32915
0	C	0.687152	0.59726	0.724347
0	C	0.821792	0.463256	0.219647
0	C	0.216546	0.0135125	0.762104
0	C	0.275902	0.0417818	0.254912
0	C	0.594208	0.481731	0.774606
0	C	0.910862	0.580682	0.269608
0	C	0.361108	0.723755	0.801068
0	C	0.125001	0.32886	0.289463
0	C	0.596048	0.235481	0.747792
0	C	0.893735	0.82486	0.241648
0	C	0.216378	0.165102	0.862555
0	C	0.274083	0.890928	0.356438
0	C	0.633132	0.647932	0.677849
0	C	0.864652	0.414055	0.17162
0	C	0.411055	0.165556	0.87368
0	C	0.0792007	0.88911	0.367051
0	C	0.460095	0.678079	0.673373
0	C	0.0353229	0.382772	0.164345
0	C	0.106593	0.223431	0.895128
0	C	0.385236	0.834145	0.389626
0	C	0.781709	0.672237	0.642706
0	C	0.709717	0.392199	0.138009
0	C	0.115849	0.2092	0.952817
0	C	0.374545	0.84891	0.447257
0	C	0.74192	0.667043	0.585376
0	C	0.741597	0.396334	0.0802594
0	C	0.100486	0.11841	0.96851
0	C	0.387148	0.939596	0.463171
0	C	0.76791	0.577145	0.568517
0	C	0.737589	0.486859	0.0630906
0	C	0.20008	0.101322	0.0192342
0	C	0.286877	0.955827	0.513923
0	C	0.663438	0.555114	0.519388
0	C	0.849612	0.502201	0.014236
0	C	0.390016	0.132576	0.0183054
0	C	0.0980722	0.923227	0.512914
0	C	0.464981	0.569719	0.524691
0	C	0.0431602	0.477913	0.0206574
0	C	0.193663	0.0118508	0.0347118
0	C	0.290896	0.0453274	0.529471
0	C	0.704267	0.468842	0.501887
0	C	0.832392	0.589391	0.995564
0	C	0.908752	0.0892983	0.971706
0	C	0.577887	0.970008	0.466473
0	C	0.963753	0.555576	0.563027
0	C	0.549015	0.518636	0.0565167
0	C	0.981617	0.26373	0.979708
0	C	0.509631	0.794801	0.474151
0	C	0.858925	0.727926	0.557525
0	C	0.605623	0.342344	0.0539267
0	C	0.146244	0.358464	0.855487
0	C	0.349863	0.69717	0.352047
0	C	0.96168	0.782573	0.679162
0	C	0.532735	0.281285	0.175812
0	C	0.283756	0.423133	0.854426
0	C	0.218632	0.630021	0.354488
0	C	0.950042	0.866328	0.695746
0	C	0.549238	0.198164	0.193199
0	C	0.142978	0.154673	0.106249
0	C	0.344605	0.902679	0.600993
0	C	0.70265	0.606092	0.431073
0	C	0.769642	0.451952	0.926731
0	C	0.996528	0.185065	0.136883
0	C	0.493713	0.875315	0.632078
0	C	0.788008	0.675493	0.404559
0	C	0.70186	0.374912	0.904483
0	H	0.439323	0.765077	0.928147
0	H	0.0135555	0.290038	0.414858
0	H	0.583285	0.206588	0.61788
0	H	0.906636	0.855393	0.111812
0	H	0.587822	0.765386	0.876619
0	H	0.880084	0.286365	0.360156
0	H	0.405427	0.229186	0.659112
0	H	0.0859041	0.832631	0.152495
0	H	0.567829	0.617829	0.865897
0	H	0.90599	0.433886	0.346529
0	H	0.414959	0.100652	0.700076
0	H	0.0731194	0.959628	0.195191
0	H	0.606465	0.636855	0.930265
0	H	0.838346	0.417004	0.409409
0	H	0.459991	0.0763279	0.636417
0	H	0.0258846	0.98624	0.131914
0	H	0.200049	0.585892	0.842453
0	H	0.269805	0.46883	0.334286
0	H	0.839863	0.137355	0.77595
0	H	0.647836	0.920423	0.270326
0	H	0.0613679	0.581895	0.896219
0	H	0.392652	0.473344	0.391349
0	H	0.953333	0.076517	0.708182
0	H	0.53127	0.980331	0.201125
0	H	0.117731	0.729122	0.914112
0	H	0.339927	0.325988	0.407204
0	H	0.88642	0.204778	0.645459
0	H	0.605419	0.85288	0.138524
0	H	0.00116697	0.70045	0.803497
0	H	0.478505	0.356845	0.2989
0	H	0.973828	0.226964	0.758812
0	H	0.51406	0.830139	0.251674
0	H	0.867155	0.684433	0.856884
0	H	0.60054	0.372857	0.354678
0	H	0.125203	0.205592	0.710324
0	H	0.364245	0.84928	0.202444
0	H	0.819147	0.823896	0.819387
0	H	0.660542	0.234346	0.316782
0	H	0.118372	0.354317	0.731264
0	H	0.378089	0.700657	0.224094
0	H	0.891192	0.828722	0.882818
0	H	0.578396	0.228463	0.379167
0	H	0.0595227	0.337662	0.667091
0	H	0.438834	0.717519	0.160127
0	H	0.109159	0.858355	0.786003
0	H	0.377378	0.197512	0.279506
0	H	0.796086	0.354806	0.755988
0	H	0.700386	0.705113	0.24982
0	H	0.245049	0.859792	0.896692
0	H	0.224127	0.19592	0.388324
0	H	0.749386	0.337173	0.640331
0	H	0.748439	0.721106	0.134122
0	H	0.542328	0.881918	0.854101
0	H	0.934752	0.170151	0.342345
0	H	0.439344	0.364234	0.647672
0	H	0.0598066	0.697361	0.142062
0	H	0.436381	0.886904	0.794749
0	H	0.0493625	0.165012	0.284338
0	H	0.443279	0.365379	0.714268
0	H	0.0545638	0.697419	0.208669
0	H	0.377329	0.00294563	0.884772
0	H	0.103704	0.0520272	0.376221
0	H	0.600212	0.494427	0.642125
0	H	0.904638	0.565521	0.137236
0	H	0.486994	0.0254815	0.827082
0	H	1.65322e-05	0.0264601	0.31804
0	H	0.413835	0.50489	0.683383
0	H	0.0915985	0.557521	0.178425
0	H	0.0613414	0.958538	0.883524
0	H	0.417889	0.0977697	0.377381
0	H	0.896894	0.48024	0.673794
0	H	0.607557	0.576423	0.168986
0	H	0.852527	0.990784	0.784613
0	H	0.63696	0.0676926	0.279861
0	H	0.926424	0.513906	0.787501
0	H	0.580164	0.540033	0.281905
0	H	0.763914	0.970268	0.844719
0	H	0.719153	0.0885475	0.340674
0	H	0.0738816	0.442152	0.764636
0	H	0.436245	0.615071	0.262197
0	H	0.875091	0.0962254	0.881184
0	H	0.612398	0.960948	0.375582
0	H	0.0478024	0.602734	0.702469
0	H	0.449459	0.458687	0.195547
0	H	0.0898595	0.0275543	0.743101
0	H	0.404335	0.0282001	0.236746
0	H	0.680444	0.503035	0.805496
0	H	0.826331	0.558758	0.300567
0	H	0.310514	0.0609387	0.749199
0	H	0.183307	0.994196	0.241387
0	H	0.461341	0.50753	0.780354
0	H	0.0455134	0.55677	0.275398
0	H	0.266376	0.955731	0.747338
0	H	0.22727	0.0995576	0.239788
0	H	0.583594	0.415087	0.778707
0	H	0.917902	0.647504	0.273383
0	H	0.380868	0.65762	0.7993
0	H	0.109565	0.395151	0.286609
0	H	0.591092	0.171294	0.759937
0	H	0.894414	0.888997	0.253969
0	H	0.257915	0.739338	0.773621
0	H	0.233382	0.311322	0.264193
0	H	0.681022	0.266792	0.775253
0	H	0.809482	0.792351	0.268797
0	H	0.484509	0.752446	0.788708
0	H	0.00313143	0.301036	0.2753
0	H	0.46128	0.259133	0.750938
0	H	0.0296088	0.802826	0.245286
0	H	0.489542	0.144442	0.840802
0	H	0.00104092	0.909877	0.334005
0	H	0.362346	0.659799	0.703282
0	H	0.141568	0.402681	0.191222
0	H	0.458028	0.227632	0.881645
0	H	0.0341903	0.826647	0.374828
0	H	0.458942	0.749671	0.673332
0	H	0.035577	0.310856	0.1685
0	H	0.444902	0.127119	0.90606
0	H	0.04315	0.92721	0.399391
0	H	0.393027	0.673259	0.635934
0	H	0.0893437	0.381636	0.125184
0	H	0.970016	0.230353	0.879995
0	H	0.522157	0.827495	0.374676
0	H	0.909138	0.639399	0.65146
0	H	0.58512	0.425959	0.148401
0	H	0.251502	0.23103	0.964572
0	H	0.23911	0.826288	0.458704
0	H	0.60113	0.685051	0.578339
0	H	0.875404	0.370389	0.0716609
0	H	0.170301	0.0805082	0.939458
0	H	0.316241	0.977106	0.434121
0	H	0.708928	0.536535	0.598634
0	H	0.804072	0.52468	0.0933133
0	H	0.455241	0.122622	0.0551751
0	H	0.0314396	0.933395	0.54956
0	H	0.395849	0.555129	0.488971
0	H	0.123378	0.497483	0.987699
0	H	0.469533	0.100834	0.989907
0	H	0.0182681	0.953573	0.484023
0	H	0.405361	0.530847	0.55354
0	H	0.104743	0.506286	0.0535105
0	H	0.396137	0.198175	0.0105997
0	H	0.094255	0.857378	0.505825
0	H	0.434194	0.633563	0.532858
0	H	0.0591832	0.411423	0.0224805
0	H	0.0582715	0.992173	0.0433776
0	H	0.425937	0.0656327	0.538054
0	H	0.83876	0.464856	0.485845
0	H	0.701775	0.601062	0.978169
0	H	0.247064	0.971694	0.00553589
0	H	0.236412	0.0851781	0.50029
0	H	0.69357	0.424125	0.532322
0	H	0.852428	0.634036	0.0256934
0	H	0.271663	0.00154931	0.0693506
0	H	0.212959	0.0552623	0.564115
0	H	0.613947	0.449787	0.471426
0	H	0.929285	0.602609	0.965491
0	H	0.841525	0.115231	0.0048169
0	H	0.646297	0.943789	0.499299
0	H	0.0142474	0.575743	0.525852
0	H	0.494777	0.501386	0.0191572
0	H	0.833694	0.106683	0.937678
0	H	0.653088	0.953956	0.432225
0	H	0.0460935	0.58402	0.592
0	H	0.45811	0.494989	0.0850183
0	H	0.900874	0.0229125	0.975324
0	H	0.583501	0.0363439	0.470648
0	H	0.985662	0.489626	0.564633
0	H	0.543627	0.585299	0.0581231
0	H	0.970359	0.246257	0.0197618
0	H	0.51323	0.809198	0.514775
0	H	0.844168	0.720213	0.51634
0	H	0.615641	0.349824	0.0125927
0	H	0.0212056	0.328084	0.978112
0	H	0.475731	0.73024	0.470086
0	H	0.823037	0.791041	0.566954
0	H	0.627833	0.27769	0.0626693
0	H	0.848387	0.259276	0.963309
0	H	0.644205	0.803074	0.459549
0	H	0.999662	0.720729	0.566089
0	H	0.469158	0.356847	0.0643304
0	H	0.416675	0.397106	0.848166
0	H	0.0814738	0.653061	0.357413
0	H	0.817113	0.898421	0.693409
0	H	0.684551	0.169379	0.193882
0	H	0.258098	0.469085	0.825044
0	H	0.227484	0.58879	0.321787
0	H	0.996878	0.874872	0.735212
0	H	0.491225	0.188697	0.231436
0	H	0.289136	0.45389	0.891687
0	H	0.241681	0.594576	0.389658
0	H	0.0328767	0.908189	0.671825
0	H	0.477907	0.153441	0.168162
0	H	0.0364383	0.224673	0.168268
0	H	0.455661	0.833192	0.662427
0	H	0.722744	0.687612	0.367717
0	H	0.763583	0.363257	0.867061
0	H	0.882219	0.208517	0.116296
0	H	0.60962	0.853579	0.611387
0	H	0.782203	0.732676	0.42651
0	H	0.731405	0.320974	0.928245
0	H	0.932449	0.127313	0.159001
0	H	0.550839	0.931682	0.655024
0	H	0.929563	0.663217	0.39714
0	H	0.557371	0.376408	0.899167
