#******************************************
#
# CIF file created by Zeo++
# Zeo++ is an open source package to
# analyze microporous materials
#
#*******************************************

_cell_length_a		14.5769(0)
_cell_length_b		14.6009(0)
_cell_length_c		25.1102(0)
_cell_angle_alpha		90(0)
_cell_angle_beta		90(0)
_cell_angle_gamma		120.638(0)

_symmetry_space_group_name_H-M		'P1'
_symmetry_Int_Tables_number		1
_symmetry_cell_setting		Monoclinic

loop_
_symmetry_equiv_pos_as_xyz
'+x,+y,+z'

loop_
_atom_site_label
_atom_site_type_symbol
_atom_site_fract_x
_atom_site_fract_y
_atom_site_fract_z
0	Cl	0.190523	0.342113	0.578459
0	Cl	0.681294	0.856841	0.914585
0	Cl	0.166627	0.832819	0.245881
0	Cl	0.88843	0.265184	0.589495
0	Cl	0.764015	0.635038	0.920942
0	Cl	0.393446	0.135414	0.255917
0	Cl	0.465305	0.915589	0.562967
0	Cl	0.110093	0.559132	0.89834
0	Cl	0.46514	0.563884	0.23046
0	Cl	0.675749	0.671541	0.51214
0	Cl	0.348043	0.00867585	0.847122
0	Cl	0.0237413	0.352666	0.178261
0	O	0.110962	0.09086	0.311313
0	O	0.930729	0.025621	0.646365
0	O	0.998534	0.914222	0.97835
0	N	0.158011	0.210153	0.381836
0	N	0.811484	0.954239	0.717243
0	N	0.068508	0.865902	0.0490361
0	O	0.114069	0.518309	0.326865
0	O	0.499883	0.599422	0.661203
0	O	0.428504	0.916538	0.99362
0	O	0.880681	0.787579	0.283777
0	O	0.236166	0.106073	0.620086
0	O	0.926507	0.141683	0.950978
0	H	0.819579	0.788246	0.261973
0	H	0.236732	0.0444532	0.598918
0	H	0.989154	0.203075	0.929277
0	N	0.0285056	0.397192	0.3959
0	N	0.623985	0.636942	0.728721
0	N	0.389255	0.998347	0.0623927
0	O	0.767386	0.993878	0.312381
0	O	0.0323021	0.782656	0.650449
0	O	0.24903	0.261643	0.982744
0	O	0.248664	0.391797	0.379101
0	O	0.629651	0.863219	0.71505
0	O	0.16068	0.778066	0.0458201
0	O	0.472616	0.651301	0.381585
0	O	0.372758	0.824941	0.717948
0	O	0.202436	0.553772	0.0499102
0	O	0.350629	0.83109	0.31785
0	O	0.18281	0.51661	0.658038
0	O	0.504656	0.68971	0.981133
0	H	0.423932	0.837588	0.307418
0	H	0.177336	0.583127	0.646753
0	H	0.437454	0.617057	0.969542
0	C	0.0569077	0.0921432	0.450226
0	C	0.929223	0.971959	0.785527
0	C	0.0531665	0.96671	0.117458
0	O	0.748043	0.85412	0.263939
0	O	0.171766	0.905334	0.601394
0	O	0.128785	0.276861	0.931936
0	C	0.141609	0.676882	0.416832
0	C	0.34497	0.468435	0.753317
0	C	0.558909	0.8909	0.0841515
0	H	0.186506	0.730841	0.451246
0	H	0.292904	0.459896	0.788379
0	H	0.567563	0.845924	0.118385
0	C	0.298245	0.754832	0.354605
0	C	0.263772	0.54407	0.692327
0	C	0.480456	0.737332	0.0200095
0	C	0.03903	0.927692	0.4041
0	C	0.093581	0.121295	0.739318
0	C	0.906208	0.983606	0.0712532
0	H	0.981854	0.874716	0.435854
0	H	0.146913	0.118763	0.771056
0	H	0.910688	0.0401897	0.103094
0	C	0.151004	0.957719	0.420777
0	C	0.0626372	0.201948	0.755798
0	C	0.822594	0.87138	0.0875731
0	C	0.330523	0.652117	0.473838
0	C	0.373453	0.684914	0.808965
0	C	0.340546	0.698436	0.139803
0	C	0.0998569	0.511838	0.469208
0	C	0.513183	0.595552	0.803425
0	C	0.432435	0.928584	0.135955
0	C	0.0239515	0.0251083	0.400081
0	C	0.996299	0.00681076	0.735385
0	C	0.0194831	0.999586	0.0673487
0	O	0.496318	0.782569	0.325249
0	O	0.239582	0.715934	0.661866
0	O	0.309472	0.537905	0.989859
0	C	0.0996167	0.105852	0.357424
0	C	0.915622	0.000149011	0.692636
0	C	0.0241366	0.924696	0.0245803
0	C	0.226604	0.310605	0.355533
0	C	0.711144	0.92226	0.691148
0	C	0.0998789	0.797985	0.0226574
0	C	0.237135	0.00540779	0.385208
0	C	0.0134015	0.237601	0.720097
0	C	0.78486	0.785285	0.0521054
0	H	0.225986	0.024816	0.344554
0	H	0.993874	0.205898	0.679595
0	H	0.816744	0.796749	0.0117031
0	C	0.17562	0.27897	0.476722
0	C	0.742957	0.9036	0.81242
0	C	0.119079	0.847993	0.143981
0	H	0.233287	0.362202	0.467108
0	H	0.659735	0.877702	0.803107
0	H	0.143879	0.790537	0.134376
0	C	0.278574	0.614551	0.419639
0	C	0.409202	0.66905	0.754738
0	C	0.357552	0.751268	0.0857773
0	H	0.283492	0.541729	0.408443
0	H	0.482137	0.747555	0.742766
0	H	0.279362	0.745225	0.0739328
0	C	0.415275	0.785483	0.541704
0	C	0.240562	0.639192	0.876627
0	C	0.385644	0.612981	0.208145
0	C	0.0653175	0.141539	0.542426
0	C	0.880451	0.931346	0.877794
0	C	0.0937559	0.958029	0.209664
0	H	0.0381127	0.11917	0.583583
0	H	0.902861	0.926622	0.918925
0	H	0.0990453	0.985071	0.250837
0	C	0.168066	0.934641	0.472847
0	C	0.0862743	0.243886	0.807577
0	C	0.779943	0.853741	0.139185
0	H	0.1029	0.899876	0.501612
0	H	0.122417	0.215943	0.836506
0	H	0.809209	0.91871	0.167942
0	C	0.139553	0.246148	0.52896
0	C	0.776061	0.90092	0.864592
0	C	0.122742	0.883805	0.196239
0	C	0.106757	0.539918	0.522429
0	C	0.487594	0.576357	0.857003
0	C	0.452302	0.921333	0.189307
0	H	0.163404	0.620848	0.535559
0	H	0.407499	0.552403	0.87098
0	H	0.476498	0.865519	0.202542
0	C	0.971075	0.29809	0.36716
0	C	0.721661	0.678659	0.698732
0	C	0.344798	0.0518564	0.033309
0	C	0.157898	0.579983	0.42123
0	C	0.442823	0.583212	0.756273
0	C	0.444292	0.872251	0.0880479
0	C	0.785077	0.000702375	0.450981
0	C	0.016798	0.79012	0.785431
0	C	0.238296	0.237882	0.118302
0	H	0.810661	0.0806095	0.435725
0	H	0.93635	0.73619	0.770002
0	H	0.291463	0.211183	0.103207
0	C	0.0402847	0.462637	0.559815
0	C	0.566277	0.58874	0.893554
0	C	0.440125	0.986216	0.226653
0	H	0.0446326	0.483306	0.601905
0	H	0.54779	0.574621	0.935953
0	H	0.455263	0.981428	0.268876
0	C	0.0235077	0.0632348	0.502338
0	C	0.958432	0.967829	0.837559
0	C	0.0581134	0.999939	0.169578
0	H	0.964898	0.9812	0.51271
0	H	0.0404173	0.991565	0.847737
0	H	0.0357945	0.0585281	0.179966
0	C	0.914901	0.857857	0.324238
0	C	0.164662	0.0684813	0.660086
0	C	0.962368	0.108028	0.991541
0	C	0.719281	0.798905	0.488515
0	C	0.22002	0.925394	0.823203
0	C	0.105142	0.306613	0.155131
0	C	0.338253	0.69702	0.377382
0	C	0.324746	0.644012	0.713441
0	C	0.381981	0.693831	0.0433989
0	C	0.0259003	0.405402	0.453105
0	C	0.618484	0.627594	0.786022
0	C	0.399444	0.000981036	0.119636
0	C	0.794895	0.839826	0.447798
0	C	0.18006	0.96234	0.783466
0	C	0.067842	0.22969	0.115065
0	H	0.826919	0.792971	0.43091
0	H	0.228165	0.042502	0.767337
0	H	0.988171	0.197912	0.0983904
0	C	0.00776493	0.86285	0.352013
0	C	0.157964	0.155873	0.687069
0	C	0.873109	0.0146173	0.0190956
0	H	0.0760924	0.897615	0.323177
0	H	0.121755	0.18663	0.6579
0	H	0.839347	0.946583	0.990129
0	H	0.99237	0.781083	0.360185
0	H	0.239343	0.224934	0.694852
0	H	0.806483	0.0294092	0.0270912
0	C	0.871777	0.919719	0.335999
0	C	0.103296	0.96255	0.672045
0	C	0.0681692	0.152229	0.00365584
0	C	0.13308	0.200308	0.437919
0	C	0.821242	0.939537	0.773391
0	C	0.0838546	0.890642	0.10515
0	C	0.190681	0.739435	0.365198
0	C	0.279822	0.452644	0.70251
0	C	0.573767	0.844329	0.0321824
0	H	0.139023	0.696905	0.330035
0	H	0.320668	0.443835	0.666762
0	H	0.585046	0.897638	0.997612
0	H	0.194295	0.817627	0.366491
0	H	0.20153	0.376764	0.704678
0	H	0.648274	0.840541	0.0339087
0	C	0.828269	0.942431	0.428744
0	C	0.0769328	0.893324	0.76416
0	C	0.135804	0.195193	0.0962407
0	C	0.369491	0.756868	0.491196
0	C	0.268539	0.618837	0.826807
0	C	0.406098	0.660597	0.158023
0	H	0.365045	0.814882	0.465656
0	H	0.209889	0.553876	0.802097
0	H	0.470798	0.667189	0.133389
0	C	0.339537	0.579617	0.507091
0	C	0.447123	0.769056	0.841265
0	C	0.256258	0.68694	0.171922
0	H	0.309093	0.497799	0.493611
0	H	0.529282	0.820294	0.827439
0	H	0.205229	0.716801	0.157857
0	C	0.269225	0.956623	0.488705
0	C	0.0633229	0.322059	0.823032
0	C	0.699512	0.752154	0.154697
0	H	0.280961	0.937118	0.529308
0	H	0.0836351	0.354988	0.863346
0	H	0.666376	0.74017	0.194975
0	C	0.907941	0.992374	0.383529
0	C	0.0288932	0.924245	0.718953
0	C	0.104332	0.115749	0.050971
0	H	0.909459	0.0683615	0.371675
0	H	0.952794	0.84894	0.706306
0	H	0.179089	0.114746	0.0388241
0	C	0.790629	0.916921	0.301413
0	C	0.108171	0.88414	0.638476
0	C	0.148169	0.235272	0.96984
0	C	0.988094	0.666049	0.468195
0	C	0.356579	0.326809	0.804788
0	C	0.701604	0.0449842	0.136423
0	H	0.0423642	0.704701	0.501617
0	H	0.318729	0.342243	0.838461
0	H	0.684783	0.991084	0.170096
0	C	0.102576	0.50125	0.374084
0	C	0.519113	0.605979	0.708209
0	C	0.421278	0.926835	0.0407837
0	C	0.0252759	0.644803	0.42097
0	C	0.376806	0.384766	0.757364
0	C	0.643829	0.00754116	0.0888827
0	C	0.338335	0.0277829	0.401251
0	C	0.990167	0.315433	0.73573
0	C	0.704928	0.683658	0.0678282
0	H	0.404447	0.0639346	0.373022
0	H	0.953276	0.343533	0.707324
0	H	0.675802	0.617553	0.0397804
0	C	0.960658	0.327221	0.489437
0	C	0.697898	0.641502	0.821459
0	C	0.385394	0.064783	0.15587
0	H	0.905689	0.245126	0.476995
0	H	0.7791	0.667845	0.808029
0	H	0.358204	0.118777	0.143264
0	C	0.969819	0.359196	0.542781
0	C	0.668422	0.620758	0.875229
0	C	0.407229	0.0555223	0.209359
0	C	0.709718	0.957862	0.491775
0	C	0.0588346	0.755288	0.825144
0	C	0.273311	0.314387	0.158504
0	H	0.676453	0.00367011	0.508674
0	H	0.0118175	0.674746	0.841117
0	H	0.353115	0.347374	0.175279
0	C	0.675828	0.855572	0.511054
0	C	0.161929	0.823183	0.844425
0	C	0.206478	0.349933	0.177313
0	H	0.615653	0.820445	0.542254
0	H	0.196575	0.79619	0.874623
0	H	0.233557	0.411295	0.207941
0	C	0.974341	0.30505	0.308077
0	C	0.711732	0.674587	0.639749
0	C	0.344742	0.0440848	0.974305
0	H	0.932381	0.345086	0.29311
0	H	0.671581	0.591884	0.62485
0	H	0.426481	0.0836691	0.957955
0	H	0.935202	0.224989	0.290078
0	H	0.790787	0.717774	0.62064
0	H	0.303882	0.0820773	0.955889
0	H	0.0559513	0.352166	0.291746
0	H	0.6631	0.70728	0.624443
0	H	0.307072	0.961338	0.959675
0	C	0.683016	0.995611	0.28083
0	C	0.0302364	0.695381	0.619963
0	C	0.338403	0.347818	0.952891
0	H	0.707258	0.00650825	0.238493
0	H	0.0186176	0.706538	0.577558
0	H	0.326083	0.327842	0.910046
0	H	0.609175	0.917077	0.285973
0	H	0.108825	0.701699	0.625369
0	H	0.336111	0.421587	0.960184
0	C	0.677828	0.0864231	0.305498
0	C	0.939289	0.598934	0.645545
0	C	0.432456	0.348268	0.977479
0	C	0.954115	0.59478	0.378586
0	C	0.426085	0.364008	0.714818
0	C	0.666647	0.0786838	0.0464621
0	H	0.981825	0.577785	0.341533
0	H	0.442248	0.408178	0.677556
0	H	0.622424	0.0508844	0.00913083
0	O	0.924225	0.215994	0.392469
0	O	0.804899	0.714293	0.723043
0	O	0.309934	0.0986196	0.0583043
0	C	0.57219	0.660218	0.361792
0	C	0.364624	0.916631	0.699837
0	C	0.110851	0.452931	0.0309475
0	H	0.632689	0.70967	0.391969
0	H	0.316956	0.926581	0.731184
0	H	0.100269	0.394793	0.0621619
0	H	0.593353	0.700914	0.32253
0	H	0.322165	0.897844	0.661097
0	H	0.130624	0.430337	0.992256
0	C	0.263205	0.304371	0.30125
0	C	0.717427	0.964867	0.636775
0	C	0.0540643	0.758804	0.969007
0	H	0.313062	0.267235	0.301429
0	H	0.753364	0.0523473	0.637101
0	H	0.966672	0.704956	0.970695
0	H	0.312259	0.384459	0.283783
0	H	0.637258	0.931408	0.61912
0	H	0.0870072	0.712893	0.950816
0	H	0.196921	0.255115	0.273576
0	H	0.767694	0.949945	0.609224
0	H	0.0666279	0.822995	0.941174
0	C	0.354506	0.00288498	0.452894
0	C	0.0155778	0.358266	0.78711
0	C	0.661652	0.666958	0.119061
0	H	0.433101	0.0195337	0.465363
0	H	0.998389	0.419622	0.799208
0	H	0.59878	0.588084	0.131322
0	C	0.440681	0.714854	0.35913
0	C	0.307629	0.728718	0.695351
0	C	0.297519	0.590372	0.0251756
0	C	0.38583	0.610669	0.557495
0	C	0.416698	0.787345	0.891034
0	C	0.237697	0.638782	0.221928
0	H	0.393045	0.554167	0.583234
0	H	0.474047	0.853143	0.916051
0	H	0.171734	0.629447	0.246734
0	C	0.54964	0.547831	0.359996
0	C	0.477619	0.00780273	0.697454
0	C	0.0195552	0.472799	0.0280239
0	C	0.582837	0.512387	0.316178
0	C	0.51284	0.0766027	0.65344
0	C	0.949581	0.435143	0.984479
0	H	0.628406	0.56721	0.284158
0	H	0.457412	0.0664326	0.62173
0	H	0.959114	0.388511	0.953469
0	C	0.646898	0.0790179	0.359006
0	C	0.947711	0.576296	0.699042
0	C	0.458217	0.379562	0.0308363
0	H	0.624427	0.00654576	0.381391
0	H	0.021313	0.627026	0.720877
0	H	0.411886	0.406255	0.0531902
0	C	0.647194	0.164968	0.383592
0	C	0.861265	0.490622	0.724383
0	C	0.541249	0.374061	0.0553947
0	H	0.62422	0.159519	0.425251
0	H	0.867504	0.473767	0.766038
0	H	0.560624	0.397437	0.0969216
0	C	0.706926	0.179364	0.276525
0	C	0.844885	0.534139	0.617307
0	C	0.491269	0.313374	0.948624
0	H	0.729682	0.185394	0.23474
0	H	0.838389	0.550319	0.575554
0	H	0.472393	0.290197	0.906973
0	C	0.423737	0.714548	0.575621
0	C	0.312378	0.721806	0.90945
0	C	0.303195	0.601637	0.240845
0	H	0.458753	0.738394	0.615294
0	H	0.288868	0.7358	0.948506
0	H	0.289067	0.564803	0.280175
0	C	0.494304	0.477761	0.401984
0	C	0.548568	0.0238856	0.739063
0	C	0.00451553	0.529787	0.0686782
0	H	0.468771	0.505977	0.435981
0	H	0.520833	0.970201	0.773267
0	H	0.0592712	0.559079	0.102495
0	C	0.706751	0.265009	0.301296
0	C	0.758721	0.448427	0.642857
0	C	0.574336	0.308122	0.973417
0	H	0.729386	0.33725	0.278817
0	H	0.685271	0.398222	0.621031
0	H	0.619866	0.280722	0.951086
0	C	0.678023	0.258353	0.354903
0	C	0.766406	0.427279	0.696473
0	C	0.598663	0.337431	0.0268532
0	H	0.679912	0.326026	0.374438
0	H	0.698401	0.361611	0.716594
0	H	0.662233	0.331477	0.046425
0	C	0.810598	0.587734	0.43056
0	C	0.434658	0.229096	0.767115
0	C	0.803644	0.222562	0.0990767
0	H	0.727022	0.56509	0.434266
0	H	0.457696	0.169044	0.770904
0	H	0.865501	0.306292	0.102984
0	C	0.881208	0.637405	0.472888
0	C	0.385572	0.249526	0.809538
0	C	0.780899	0.15205	0.141423
0	H	0.85295	0.653726	0.509869
0	H	0.370171	0.205507	0.846751
0	H	0.824622	0.180464	0.178858
0	C	0.847396	0.566609	0.38338
0	C	0.454675	0.286464	0.719704
0	C	0.746333	0.185479	0.0515255
0	H	0.79267	0.528202	0.350202
0	H	0.492631	0.270525	0.686443
0	H	0.764281	0.240245	0.0183144
0	C	0.557874	0.406497	0.313862
0	C	0.619177	0.158859	0.650524
0	C	0.866935	0.45702	0.981107
0	H	0.581987	0.378156	0.279504
0	H	0.647281	0.211349	0.615986
0	H	0.813452	0.429112	0.946959
0	C	0.469933	0.37206	0.399508
0	C	0.65471	0.106644	0.736036
0	C	0.92148	0.551094	0.0651536
0	H	0.426249	0.317467	0.431956
0	H	0.709889	0.118608	0.768244
0	H	0.910375	0.596	0.0966115
0	C	0.500846	0.336117	0.35526
0	C	0.690333	0.173567	0.691568
0	C	0.853217	0.515568	0.0211455
0	H	0.4808	0.253334	0.352986
0	H	0.773471	0.237434	0.688852
0	H	0.789096	0.533156	0.017972
