#******************************************
#
# CIF file created by Zeo++
# Zeo++ is an open source package to
# analyze microporous materials
#
#*******************************************

_cell_length_a		18.5579(0)
_cell_length_b		8.45885(0)
_cell_length_c		15.837(0)
_cell_angle_alpha		90(0)
_cell_angle_beta		113.299(0)
_cell_angle_gamma		90(0)

_symmetry_space_group_name_H-M		'P1'
_symmetry_Int_Tables_number		1
_symmetry_cell_setting		Monoclinic

loop_
_symmetry_equiv_pos_as_xyz
'+x,+y,+z'

loop_
_atom_site_label
_atom_site_type_symbol
_atom_site_fract_x
_atom_site_fract_y
_atom_site_fract_z
0	C	0.664954	0.754771	0.0526063
0	C	0.335424	0.25363	0.454544
0	C	0.334932	0.275942	0.954378
0	C	0.664566	0.777557	0.5526
0	H	0.712307	0.818541	0.106102
0	H	0.288244	0.317089	0.400698
0	H	0.28759	0.212171	0.900884
0	H	0.711749	0.714125	0.606468
0	C	0.606575	0.837718	0.983098
0	C	0.393493	0.3367	0.524287
0	C	0.393312	0.193024	0.0238927
0	C	0.606538	0.6944	0.482873
0	H	0.608692	0.967377	0.981841
0	H	0.391329	0.466355	0.525369
0	H	0.391205	0.0633684	0.0251529
0	H	0.608734	0.564745	0.481825
0	C	0.544093	0.757663	0.914034
0	C	0.455737	0.256855	0.59379
0	C	0.45579	0.273101	0.092963
0	C	0.54427	0.774168	0.413322
0	H	0.498623	0.823473	0.859748
0	H	0.50093	0.322778	0.648294
0	H	0.501264	0.2073	0.147245
0	H	0.499101	0.708142	0.35882
0	C	0.542439	0.594548	0.917253
0	C	0.457555	0.0937024	0.590629
0	C	0.457425	0.436232	0.0897346
0	C	0.542415	0.937276	0.41646
0	C	0.603206	0.509079	0.988236
0	C	0.397112	0.00814577	0.519312
0	C	0.39665	0.521639	0.018735
0	C	0.602824	0.0229812	0.487757
0	C	0.663878	0.587915	0.0558955
0	C	0.336608	0.0867789	0.451382
0	C	0.335998	0.442785	0.951068
0	C	0.663338	0.944399	0.555712
0	H	0.710086	0.524093	0.110769
0	H	0.290596	0.022907	0.396321
0	H	0.289788	0.506563	0.896163
0	H	0.70933	0.00837532	0.610755
0	C	0.587039	0.33545	0.973589
0	C	0.413463	0.834563	0.533811
0	C	0.412807	0.6953	0.0333842
0	C	0.586425	0.196547	0.473189
0	C	0.510198	0.32415	0.891684
0	C	0.490051	0.823419	0.616082
0	C	0.489639	0.706671	0.11529
0	C	0.509848	0.207522	0.390912
0	C	0.484473	0.47971	0.857718
0	C	0.51543	0.978971	0.650384
0	C	0.515373	0.551116	0.149257
0	C	0.484514	0.0519249	0.356655
0	C	0.414421	0.500876	0.782861
0	C	0.585162	1.50872e-05	0.725732
0	C	0.58543	0.529967	0.224114
0	C	0.4148	0.0307804	0.281292
0	H	0.394101	0.61823	0.755148
0	H	0.605234	0.117264	0.753794
0	H	0.605755	0.412603	0.251809
0	H	0.394794	0.913475	0.253272
0	C	0.368152	0.366774	0.743446
0	C	0.631447	0.865955	0.765259
0	C	0.63169	0.664086	0.263543
0	C	0.368454	0.164749	0.241706
0	H	0.311944	0.383978	0.685569
0	H	0.687362	0.883235	0.823598
0	H	0.687896	0.64692	0.32143
0	H	0.312557	0.147371	0.183355
0	C	0.391938	0.214813	0.777947
0	C	0.60807	0.714071	0.730359
0	C	0.607899	0.816034	0.229032
0	C	0.391788	0.31668	0.276583
0	C	0.465603	0.193043	0.852623
0	C	0.534672	0.692377	0.655205
0	C	0.534235	0.837784	0.154349
0	C	0.465157	0.33848	0.351728
0	H	0.485821	0.0748312	0.878799
0	H	0.514595	0.574277	0.628665
0	H	0.514028	0.955983	0.128155
0	H	0.485217	0.456629	0.378242
0	C	0.340893	0.0765082	0.740459
0	C	0.659124	0.575728	0.767875
0	C	0.658957	0.954347	0.266516
0	C	0.340694	0.454934	0.239037
0	C	0.294934	0.0614006	0.645936
0	C	0.70523	0.560448	0.86234
0	C	0.704914	0.969505	0.361059
0	C	0.294636	0.470216	0.144579
0	H	0.298007	0.152224	0.59839
0	H	0.702677	0.651472	0.910045
0	H	0.701808	0.878744	0.408598
0	H	0.297262	0.379205	0.0968878
0	C	0.245896	0.931598	0.611366
0	C	0.753816	0.429918	0.896807
0	C	0.75399	0.0992762	0.395601
0	C	0.245983	0.600654	0.110078
0	H	0.210827	0.923063	0.537789
0	H	0.788899	0.421163	0.970364
0	H	0.789062	0.10781	0.469181
0	H	0.210906	0.609401	0.0365216
0	C	0.241936	0.812371	0.671749
0	C	0.75727	0.310375	0.836375
0	C	0.757983	0.2184	0.335178
0	C	0.242444	0.720168	0.170502
0	C	0.288962	0.825417	0.766569
0	C	0.710204	0.323747	0.741549
0	C	0.710974	0.205302	0.240354
0	C	0.28952	0.706887	0.265329
0	H	0.288485	0.734122	0.815107
0	H	0.71028	0.232123	0.692998
0	H	0.711499	0.296526	0.191797
0	H	0.289415	0.798507	0.313875
0	C	0.337117	0.956411	0.799981
0	C	0.662521	0.455325	0.708278
0	C	0.662788	0.0743487	0.206967
0	C	0.337222	0.575298	0.298624
0	H	0.371979	0.964563	0.874163
0	H	0.627685	0.463807	0.634108
0	H	0.627938	0.0661608	0.132785
0	H	0.372033	0.566899	0.372805
0	C	0.166328	0.586943	0.697742
0	C	0.83246	0.0847176	0.810045
0	C	0.833627	0.443883	0.309234
0	C	0.167297	0.945846	0.196885
0	C	0.141203	0.660749	0.760988
0	C	0.857361	0.159005	0.74672
0	C	0.858765	0.370121	0.245985
0	C	0.142429	0.8718	0.260297
0	H	0.138164	0.789368	0.763114
0	H	0.860289	0.287524	0.744612
0	H	0.861812	0.241611	0.243823
0	H	0.13944	0.743311	0.262448
0	C	0.120563	0.568852	0.821083
0	C	0.87789	0.0673592	0.686439
0	C	0.879406	0.462128	0.185919
0	C	0.121989	0.963652	0.320584
0	H	0.10191	0.62697	0.870643
0	H	0.896326	0.125661	0.636754
0	H	0.898033	0.40408	0.136324
0	H	0.103533	0.905516	0.370296
0	C	0.123508	0.403837	0.817692
0	C	0.875074	0.9023	0.689724
0	C	0.876482	0.627134	0.189398
0	C	0.124919	0.128688	0.317248
0	H	0.108034	0.332354	0.865256
0	H	0.890522	0.830999	0.642084
0	H	0.891972	0.698686	0.141869
0	H	0.109535	0.200158	0.364899
0	C	0.146171	0.330907	0.752777
0	C	0.852458	0.828984	0.75456
0	C	0.853773	0.69999	0.254307
0	C	0.147497	0.201776	0.252308
0	H	0.147611	0.20212	0.749162
0	H	0.850924	0.700179	0.757947
0	H	0.852311	0.82877	0.257942
0	H	0.149114	0.330566	0.248895
0	C	0.167504	0.420886	0.692474
0	C	0.831258	0.918674	0.815069
0	C	0.832388	0.609916	0.314528
0	C	0.168562	0.111877	0.191759
0	H	0.185231	0.362837	0.642325
0	H	0.813558	0.86037	0.865201
0	H	0.814573	0.667923	0.36464
0	H	0.186183	0.170022	0.141534
0	C	0.163396	0.632601	0.542718
0	C	0.83624	0.130606	0.965418
0	C	0.836454	0.398221	0.464205
0	C	0.163378	0.899888	0.0414675
0	C	0.0825518	0.60891	0.49266
0	C	0.917265	0.108071	0.0148438
0	C	0.917284	0.421972	0.514401
0	C	0.0823622	0.922563	0.992071
0	H	0.0411576	0.631861	0.524458
0	H	0.958224	0.13187	0.982551
0	H	0.95874	0.399025	0.482692
0	H	0.0413958	0.898753	0.0243412
0	C	0.055977	0.556692	0.401823
0	C	0.944619	0.0557409	0.10573
0	C	0.943724	0.474286	0.605219
0	C	0.0550227	0.975019	0.901199
0	H	0.993238	0.538368	0.362409
0	H	0.00751247	0.0382432	0.144621
0	H	0.0064414	0.492691	0.644755
0	H	0.992141	0.992472	0.862318
0	C	0.109085	0.528858	0.360852
0	C	0.892047	0.0263506	0.147254
0	C	0.890505	0.502036	0.646046
0	C	0.10757	0.00421359	0.8596
0	H	0.087733	0.487478	0.289978
0	H	0.913974	0.984842	0.218178
0	H	0.911732	0.543505	0.71688
0	H	0.0856691	0.0459698	0.788771
0	C	0.189288	0.555112	0.410637
0	C	0.811698	0.0518209	0.0981899
0	C	0.81033	0.475727	0.596115
0	C	0.187944	0.978836	0.908739
0	H	0.231094	0.535726	0.378644
0	H	0.770368	0.0312102	0.130722
0	H	0.768455	0.495077	0.62801
0	H	0.229282	0.999408	0.876215
0	C	0.217048	0.607174	0.501586
0	C	0.783168	0.104232	0.00726642
0	C	0.782694	0.42365	0.505175
0	C	0.216423	0.926257	0.999626
0	H	0.279709	0.628851	0.539515
0	H	0.72039	0.125437	0.969896
0	H	0.720058	0.401962	0.467153
0	H	0.279221	0.904926	0.0369966
0	N	0.190252	0.68136	0.637651
0	N	0.808369	0.178498	0.870245
0	N	0.80973	0.349311	0.369304
0	N	0.191128	0.851716	0.136587
0	O	0.626659	0.226236	0.0168996
0	O	0.374081	0.725483	0.490032
0	O	0.373079	0.804092	0.989737
0	O	0.625797	0.305702	0.516918
