#******************************************
#
# CIF file created by Zeo++
# Zeo++ is an open source package to
# analyze microporous materials
#
#*******************************************

_cell_length_a		16.3705(0)
_cell_length_b		14.5855(0)
_cell_length_c		16.2448(0)
_cell_angle_alpha		90(0)
_cell_angle_beta		123.246(0)
_cell_angle_gamma		90(0)

_symmetry_space_group_name_H-M		'P1'
_symmetry_Int_Tables_number		1
_symmetry_cell_setting		Monoclinic

loop_
_symmetry_equiv_pos_as_xyz
'+x,+y,+z'

loop_
_atom_site_label
_atom_site_type_symbol
_atom_site_fract_x
_atom_site_fract_y
_atom_site_fract_z
0	C	0.04992	0.29018	0.795575
0	C	0.951726	0.290076	0.699595
0	C	0.953178	0.717548	0.20122
0	C	0.0514123	0.717704	0.297186
0	C	0.549971	0.789939	0.795731
0	C	0.452009	0.789887	0.699497
0	C	0.453349	0.217899	0.201048
0	C	0.551366	0.217956	0.297278
0	H	0.0557714	0.310173	0.863296
0	H	0.945787	0.309908	0.63178
0	H	0.947272	0.697613	0.133475
0	H	0.057354	0.697799	0.364976
0	H	0.55554	0.809947	0.863291
0	H	0.446409	0.809742	0.631853
0	H	0.447745	0.197899	0.13347
0	H	0.556975	0.198083	0.364913
0	H	0.114987	0.310492	0.79731
0	H	0.886611	0.310261	0.697812
0	H	0.888156	0.697257	0.199531
0	H	0.116493	0.697531	0.298951
0	H	0.615222	0.810121	0.797808
0	H	0.386781	0.810147	0.69738
0	H	0.388157	0.197597	0.199041
0	H	0.616593	0.197744	0.299356
0	C	0.0401274	0.144235	0.703213
0	C	0.961826	0.144196	0.79222
0	C	0.962995	0.863555	0.293589
0	C	0.0412612	0.863604	0.204566
0	C	0.540822	0.644275	0.703615
0	C	0.461218	0.644269	0.791783
0	C	0.462488	0.363568	0.293165
0	C	0.542048	0.363565	0.204972
0	C	0.0726	0.0988881	0.664983
0	C	0.929239	0.0988234	0.830327
0	C	0.930485	0.908924	0.331765
0	C	0.0738273	0.908954	0.166421
0	C	0.5744	0.599847	0.665856
0	C	0.427492	0.599865	0.829415
0	C	0.428815	0.40795	0.330861
0	C	0.575705	0.407997	0.167286
0	C	0.109345	0.0467282	0.622857
0	C	0.892593	0.0466686	0.872565
0	C	0.893744	0.961116	0.373879
0	C	0.110491	0.961097	0.124191
0	C	0.611694	0.547783	0.624189
0	C	0.390273	0.547827	0.871184
0	C	0.391491	0.46	0.372506
0	C	0.612904	0.460039	0.125503
0	C	0.142545	0.999885	0.586345
0	C	0.859597	0.999834	0.909291
0	C	0.860515	0.00795385	0.410372
0	C	0.143492	0.0078976	0.0874443
0	C	0.644598	0.49996	0.588053
0	C	0.35756	0.500022	0.907524
0	C	0.358535	0.507798	0.40861
0	C	0.6456	0.507805	0.0891149
0	C	0.182348	0.94191	0.545402
0	C	0.820078	0.941762	0.950461
0	C	0.820723	0.0659651	0.451317
0	C	0.183034	0.0659159	0.0462614
0	C	0.683838	0.4411	0.5472
0	C	0.318563	0.44105	0.948548
0	C	0.31929	0.566676	0.449453
0	C	0.684609	0.566734	0.0480685
0	C	0.173156	0.97116	0.449463
0	C	0.829514	0.970837	0.0465624
0	C	0.829873	0.0367043	0.547225
0	C	0.173503	0.0368136	0.950117
0	C	0.674209	0.469605	0.450841
0	C	0.3284	0.469349	0.045072
0	C	0.328841	0.538142	0.545769
0	C	0.674684	0.538403	0.951515
0	H	0.159376	0.91843	0.395558
0	H	0.843502	0.918026	0.100472
0	H	0.843637	0.0894197	0.601137
0	H	0.159466	0.0896029	0.896166
0	H	0.659856	0.416546	0.397068
0	H	0.342965	0.41619	0.0988292
0	H	0.34319	0.591188	0.59956
0	H	0.660105	0.591536	0.89773
0	H	0.132934	0.0336097	0.412893
0	H	0.869669	0.0333121	0.0831051
0	H	0.870064	0.97423	0.583778
0	H	0.133328	0.974342	0.913609
0	H	0.63419	0.532088	0.414114
0	H	0.368357	0.531843	0.0818026
0	H	0.368817	0.475638	0.582467
0	H	0.634695	0.475917	0.914812
0	C	0.271212	0.976333	0.545035
0	C	0.731295	0.976003	0.95107
0	C	0.731805	0.031558	0.451581
0	C	0.271722	0.0316161	0.0454908
0	C	0.772573	0.474703	0.546145
0	C	0.229935	0.47445	0.949918
0	C	0.230525	0.533089	0.450457
0	C	0.773175	0.533261	0.0466217
0	H	0.302591	0.0427091	0.57851
0	H	0.699854	0.0423817	0.917779
0	H	0.70047	0.96519	0.418134
0	H	0.303179	0.96523	0.0788406
0	H	0.804374	0.541054	0.579223
0	H	0.198006	0.540795	0.916944
0	H	0.198701	0.466753	0.417313
0	H	0.805064	0.466897	0.0795816
0	H	0.328396	0.927758	0.560054
0	H	0.674252	0.927355	0.936246
0	H	0.674633	0.0801115	0.436607
0	H	0.328822	0.0802473	0.0603926
0	H	0.829385	0.425744	0.560973
0	H	0.173231	0.425402	0.93517
0	H	0.173686	0.582036	0.43559
0	H	0.829913	0.582276	0.0613747
0	C	0.174836	0.846743	0.562365
0	C	0.827541	0.846625	0.933325
0	C	0.828288	0.161134	0.434394
0	C	0.175647	0.161059	0.0634211
0	C	0.676068	0.346035	0.56449
0	C	0.326247	0.346017	0.931055
0	C	0.327103	0.661747	0.432206
0	C	0.676982	0.661772	0.0655739
0	C	0.165674	0.767421	0.578102
0	C	0.836526	0.767296	0.917467
0	C	0.837505	0.24046	0.418704
0	C	0.166705	0.240389	0.0793067
0	C	0.667013	0.266596	0.579949
0	C	0.335109	0.266566	0.915469
0	C	0.336201	0.741187	0.416783
0	C	0.668122	0.741217	0.0811739
0	C	0.153481	0.679272	0.597361
0	C	0.848666	0.67916	0.898122
0	C	0.849763	0.328591	0.399451
0	C	0.15461	0.328543	0.0986476
0	C	0.654822	0.178329	0.598977
0	C	0.347211	0.1783	0.896351
0	C	0.348432	0.829457	0.397784
0	C	0.656024	0.829485	0.100293
0	C	0.140701	0.60213	0.615793
0	C	0.86152	0.602049	0.879671
0	C	0.862625	0.405681	0.380951
0	C	0.141788	0.405675	0.117071
0	C	0.641996	0.1011	0.617188
0	C	0.360052	0.10107	0.878149
0	C	0.36129	0.906682	0.379579
0	C	0.643164	0.906707	0.118499
0	C	0.12375	0.512068	0.638635
0	C	0.878515	0.512031	0.856774
0	C	0.879593	0.495708	0.358032
0	C	0.124781	0.495734	0.139858
0	C	0.624892	0.0110291	0.639903
0	C	0.377154	0.0109997	0.855412
0	C	0.378394	0.99674	0.356813
0	C	0.626016	0.996763	0.141203
0	C	0.201318	0.436794	0.668211
0	C	0.801123	0.43662	0.827415
0	C	0.802062	0.571024	0.328488
0	C	0.202159	0.571135	0.169163
0	C	0.702467	0.93577	0.669405
0	C	0.299636	0.935711	0.825999
0	C	0.300806	0.0720148	0.327235
0	C	0.703441	0.0721352	0.170543
0	H	0.268765	0.454805	0.673658
0	H	0.733753	0.454492	0.82219
0	H	0.734665	0.553077	0.323168
0	H	0.26958	0.553228	0.174508
0	H	0.769912	0.953844	0.674862
0	H	0.232249	0.95374	0.820691
0	H	0.233393	0.0539588	0.321879
0	H	0.770862	0.054171	0.175899
0	H	0.216123	0.388806	0.726386
0	H	0.786234	0.388683	0.769192
0	H	0.787181	0.618924	0.270229
0	H	0.21697	0.619173	0.227308
0	H	0.717301	0.887673	0.727509
0	H	0.284717	0.887679	0.767856
0	H	0.285931	0.119956	0.269078
0	H	0.718289	0.120218	0.228667
0	C	0.106698	0.431665	0.569189
0	C	0.895919	0.431602	0.926312
0	C	0.896763	0.576187	0.427441
0	C	0.107449	0.576054	0.070209
0	C	0.607852	0.930701	0.570358
0	C	0.394334	0.930645	0.924985
0	C	0.395428	0.0771464	0.426277
0	C	0.60874	0.077071	0.071547
0	H	0.0523961	0.379904	0.555086
0	H	0.950278	0.379944	0.940315
0	H	0.951066	0.627912	0.441454
0	H	0.0530269	0.627709	0.0560894
0	H	0.553588	0.87888	0.556159
0	H	0.448605	0.87884	0.939106
0	H	0.449703	0.128957	0.440413
0	H	0.554386	0.128788	0.0573661
0	H	0.105198	0.445703	0.502459
0	H	0.897592	0.445597	0.993147
0	H	0.898345	0.562223	0.494227
0	H	0.105856	0.561946	0.00345353
0	H	0.606392	0.944852	0.503663
0	H	0.395889	0.944757	0.991716
0	H	0.396902	0.0630681	0.492987
0	H	0.607235	0.0629372	0.00483566
0	C	0.0705997	0.513222	0.6853
0	C	0.931415	0.513269	0.809853
0	C	0.932615	0.494503	0.311238
0	C	0.0717694	0.494571	0.186659
0	C	0.57148	0.0121537	0.686308
0	C	0.430456	0.0121532	0.808895
0	C	0.431768	0.995584	0.310374
0	C	0.572705	0.995594	0.187705
0	C	0.025899	0.514646	0.724965
0	C	0.975932	0.514664	0.769999
0	C	0.977182	0.493125	0.271435
0	C	0.0271068	0.493146	0.22636
0	C	0.526247	0.0135228	0.725411
0	C	0.475588	0.0135215	0.769686
0	C	0.476877	0.994212	0.271142
0	C	0.527473	0.994216	0.226807
0	C	0.000941638	0.197874	0.74769
0	C	0.00217947	0.809909	0.249107
0	C	0.500997	0.697612	0.747676
0	C	0.502281	0.310214	0.249079
