#******************************************
#
# CIF file created by Zeo++
# Zeo++ is an open source package to
# analyze microporous materials
#
#*******************************************

_cell_length_a		24.0453(0)
_cell_length_b		12.9701(0)
_cell_length_c		11.3955(0)
_cell_angle_alpha		90(0)
_cell_angle_beta		90(0)
_cell_angle_gamma		90(0)

_symmetry_space_group_name_H-M		'P1'
_symmetry_Int_Tables_number		1
_symmetry_cell_setting		Monoclinic

loop_
_symmetry_equiv_pos_as_xyz
'+x,+y,+z'

loop_
_atom_site_label
_atom_site_type_symbol
_atom_site_fract_x
_atom_site_fract_y
_atom_site_fract_z
0	O	0.836518	0.394912	0.228518
0	O	0.614705	0.127867	0.729614
0	O	0.125438	0.395669	0.350088
0	O	0.347922	0.128983	0.857102
0	O	0.126042	0.623731	0.85576
0	O	0.348261	0.891334	0.353489
0	O	0.836867	0.623763	0.732619
0	O	0.614781	0.889877	0.227244
0	O	0.873898	0.510351	0.102796
0	O	0.57498	0.0157357	0.603469
0	O	0.0871919	0.51027	0.475576
0	O	0.386098	0.0166741	0.985034
0	O	0.0887583	0.507795	0.981011
0	O	0.387544	0.00301255	0.480733
0	O	0.876224	0.508395	0.609613
0	O	0.576922	0.00158314	0.0981913
0	N	0.716614	0.667135	0.178835
0	N	0.732086	0.851679	0.685622
0	N	0.244837	0.668341	0.400951
0	N	0.230036	0.852826	0.900173
0	N	0.24617	0.351748	0.904506
0	N	0.230702	0.167432	0.397493
0	N	0.717914	0.350831	0.682264
0	N	0.732626	0.166086	0.182985
0	N	0.649874	0.342492	0.12394
0	N	0.797245	0.172512	0.617077
0	N	0.309972	0.344517	0.461173
0	N	0.162878	0.174234	0.965465
0	N	0.312689	0.676486	0.959474
0	N	0.165528	0.846626	0.466359
0	N	0.652704	0.674611	0.622219
0	N	0.799969	0.844691	0.118163
0	H	0.674964	0.280727	0.140577
0	H	0.772368	0.235034	0.631557
0	H	0.285008	0.282426	0.444991
0	H	0.187851	0.236583	0.950988
0	H	0.287565	0.738205	0.942853
0	H	0.190378	0.784047	0.451889
0	H	0.677669	0.736707	0.638406
0	H	0.774979	0.782361	0.132588
0	C	0.913109	0.432981	0.0619681
0	C	0.537536	0.0965517	0.563675
0	C	0.0483112	0.432254	0.516053
0	C	0.423423	0.0973362	0.0257923
0	C	0.0494138	0.584847	0.0220428
0	C	0.424893	0.922001	0.520443
0	C	0.915111	0.586403	0.569133
0	C	0.539633	0.920836	0.0575619
0	H	0.94971	0.436004	0.119098
0	H	0.500607	0.0951522	0.619965
0	H	0.0123439	0.432866	0.457216
0	H	0.459658	0.0992257	0.967307
0	H	0.0129232	0.582095	0.964597
0	H	0.461568	0.922446	0.463389
0	H	0.951052	0.585784	0.628036
0	H	0.503007	0.920133	0.114965
0	H	0.922708	0.4581	0.972495
0	H	0.527874	0.0741068	0.473322
0	H	0.0375661	0.458466	0.604535
0	H	0.434561	0.0721613	0.114419
0	H	0.0396579	0.559177	0.111237
0	H	0.435051	0.944995	0.610376
0	H	0.925884	0.560169	0.480673
0	H	0.529163	0.944985	0.968201
0	H	0.894498	0.355736	0.063621
0	H	0.557597	0.172427	0.567898
0	H	0.0677055	0.355795	0.516822
0	H	0.402517	0.172579	0.0261011
0	H	0.0679938	0.662131	0.021133
0	H	0.404512	0.84639	0.517325
0	H	0.895703	0.662861	0.568232
0	H	0.560259	0.845337	0.0591137
0	C	0.837254	0.48196	0.1902
0	C	0.612343	0.0411214	0.690632
0	C	0.124221	0.482472	0.388787
0	C	0.349561	0.0422687	0.896266
0	C	0.125369	0.536554	0.893697
0	C	0.350445	0.977917	0.392947
0	C	0.838526	0.536662	0.694913
0	C	0.613247	0.976353	0.187492
0	C	0.801782	0.574318	0.2205
0	C	0.646274	0.946703	0.720942
0	C	0.159512	0.575293	0.359026
0	C	0.31558	0.948116	0.865237
0	C	0.160903	0.444352	0.863123
0	C	0.316537	0.0723404	0.362547
0	C	0.803211	0.443831	0.724504
0	C	0.647181	0.0706337	0.218317
0	H	0.822364	0.645023	0.183657
0	H	0.625178	0.87715	0.68282
0	H	0.138825	0.645828	0.395931
0	H	0.336741	0.878423	0.902976
0	H	0.140407	0.373545	0.899945
0	H	0.337627	0.141909	0.400659
0	H	0.823896	0.373292	0.687589
0	H	0.625955	0.140233	0.18052
0	C	0.743061	0.563523	0.163154
0	C	0.705815	0.955186	0.66675
0	C	0.218283	0.564695	0.416327
0	C	0.256136	0.956286	0.919873
0	C	0.21965	0.455278	0.92032
0	C	0.256963	0.0639435	0.416602
0	C	0.744476	0.454501	0.667056
0	C	0.706604	0.0625368	0.163535
0	H	0.746997	0.548277	0.0669784
0	H	0.70302	0.968961	0.570199
0	H	0.21432	0.549185	0.512376
0	H	0.259026	0.969279	0.0166144
0	H	0.21576	0.470463	0.0165118
0	H	0.259699	0.0502817	0.513176
0	H	0.748499	0.470082	0.571036
0	H	0.703668	0.0493828	0.0668337
0	C	0.665985	0.68359	0.105435
0	C	0.784566	0.834733	0.618173
0	C	0.296281	0.68397	0.472157
0	C	0.17833	0.834678	0.969758
0	C	0.29686	0.335391	0.977755
0	C	0.178174	0.184473	0.464749
0	C	0.66653	0.335247	0.610846
0	C	0.784273	0.184286	0.113229
0	H	0.677816	0.667818	0.012381
0	H	0.775268	0.850274	0.523998
0	H	0.285507	0.667223	0.565525
0	H	0.188539	0.849349	0.0636994
0	H	0.285086	0.351158	0.0708336
0	H	0.187416	0.169147	0.558985
0	H	0.677369	0.352225	0.517534
0	H	0.773996	0.169544	0.0193271
0	H	0.656007	0.767533	0.111998
0	H	0.794381	0.750779	0.62604
0	H	0.306352	0.767884	0.466404
0	H	0.168765	0.75068	0.961056
0	H	0.306874	0.251466	0.971182
0	H	0.168329	0.268398	0.456615
0	H	0.6565	0.251318	0.616336
0	H	0.793806	0.268299	0.121863
0	C	0.613535	0.621638	0.136855
0	C	0.836162	0.896836	0.655591
0	C	0.348215	0.621905	0.437289
0	C	0.126124	0.89634	0.93549
0	C	0.349243	0.397455	0.946141
0	C	0.126619	0.122257	0.427368
0	C	0.614534	0.397143	0.645723
0	C	0.836541	0.122738	0.147346
0	H	0.603106	0.633904	0.23135
0	H	0.843226	0.887877	0.751846
0	H	0.356774	0.632372	0.341762
0	H	0.1174	0.885961	0.839966
0	H	0.35957	0.385276	0.851589
0	H	0.119599	0.131063	0.331083
0	H	0.605933	0.386543	0.741208
0	H	0.845373	0.133262	0.242807
0	H	0.57749	0.653384	0.0876583
0	H	0.873716	0.86307	0.614136
0	H	0.385268	0.654397	0.48222
0	H	0.0894397	0.862859	0.980671
0	H	0.385355	0.365725	0.995122
0	H	0.0890302	0.156047	0.468658
0	H	0.577528	0.364677	0.600635
0	H	0.873155	0.156207	0.101893
0	C	0.619252	0.509606	0.114109
0	C	0.831118	0.00771279	0.625935
0	C	0.342395	0.510534	0.463524
0	C	0.130922	0.00784174	0.9624
0	C	0.343471	0.509461	0.969016
0	C	0.131647	0.0114338	0.457224
0	C	0.620341	0.508551	0.61966
0	C	0.831793	0.0111962	0.12066
0	C	0.581535	0.44597	0.0474037
0	C	0.86852	0.0681717	0.554827
0	C	0.379271	0.448125	0.5335
0	C	0.0924322	0.0691187	0.0300789
0	C	0.381159	0.573149	0.0356818
0	C	0.0941806	0.950989	0.528179
0	C	0.583468	0.570963	0.549681
0	C	0.870226	0.949908	0.0528795
0	C	0.533659	0.466259	0.980467
0	C	0.917732	0.0461584	0.492771
0	C	0.427206	0.469138	0.600049
0	C	0.0430292	0.047111	0.0913637
0	C	0.429109	0.552938	0.102514
0	C	0.0448915	0.973043	0.589972
0	C	0.535558	0.549941	0.483071
0	C	0.919524	0.971949	0.991164
0	H	0.519036	0.545267	0.969923
0	H	0.935303	0.968802	0.495584
0	H	0.442761	0.547865	0.606249
0	H	0.0266249	0.968856	0.0923661
0	H	0.443793	0.473949	0.112893
0	H	0.0273203	0.0503772	0.587064
0	H	0.52002	0.471201	0.476874
0	H	0.935855	0.0502495	0.989854
0	C	0.505871	0.384522	0.928989
0	C	0.942861	0.123967	0.42882
0	C	0.453691	0.388541	0.656592
0	C	0.0160701	0.126185	0.149789
0	C	0.456835	0.634688	0.154057
0	C	0.0196822	0.895222	0.653788
0	C	0.509081	0.630501	0.426478
0	C	0.946456	0.892859	0.932768
0	H	0.467989	0.398806	0.878846
0	H	0.98093	0.108315	0.380028
0	H	0.491666	0.403189	0.706278
0	H	0.977727	0.110583	0.197641
0	H	0.494757	0.620489	0.204114
0	H	0.981551	0.9109	0.702349
0	H	0.47113	0.61584	0.376734
0	H	0.984698	0.908481	0.884551
0	C	0.525514	0.281771	0.93954
0	C	0.91996	0.224823	0.424528
0	C	0.432538	0.286458	0.65201
0	C	0.0374079	0.228256	0.149367
0	C	0.437076	0.737382	0.143747
0	C	0.0425523	0.794364	0.658205
0	C	0.530218	0.732611	0.431114
0	C	0.925242	0.790703	0.933631
0	H	0.502418	0.220533	0.8958
0	H	0.940809	0.282879	0.371418
0	H	0.454367	0.226374	0.700418
0	H	0.0149879	0.287444	0.19777
0	H	0.460101	0.798646	0.187594
0	H	0.0216306	0.736303	0.711186
0	H	0.5084	0.792667	0.382661
0	H	0.947653	0.731472	0.885297
0	C	0.573045	0.258542	0.00251295
0	C	0.872013	0.250108	0.485011
0	C	0.385003	0.262644	0.589305
0	C	0.085714	0.253415	0.0901116
0	C	0.389485	0.760524	0.0808832
0	C	0.0905614	0.769038	0.597942
0	C	0.577721	0.756451	0.493936
0	C	0.877023	0.765522	0.993229
0	H	0.58825	0.179828	0.0104092
0	H	0.854524	0.327321	0.481944
0	H	0.36861	0.18457	0.586195
0	H	0.102024	0.331628	0.0896057
0	H	0.374206	0.839193	0.0731665
0	H	0.108014	0.691789	0.601035
0	H	0.594102	0.834546	0.49708
0	H	0.86079	0.687262	0.994047
0	C	0.601248	0.341534	0.0561028
0	C	0.846254	0.171041	0.550453
0	C	0.358335	0.344313	0.529822
0	C	0.11337	0.173016	0.0304495
0	C	0.361357	0.677531	0.0272141
0	C	0.116421	0.848115	0.532649
0	C	0.604375	0.674804	0.553434
0	C	0.849381	0.845943	0.0528191
0	C	0.660804	0.445567	0.15762
0	C	0.788184	0.0721717	0.662011
0	C	0.30029	0.446558	0.422251
0	C	0.173347	0.0728483	0.92504
0	C	0.301832	0.573409	0.925687
0	C	0.174617	0.946931	0.421319
0	C	0.662418	0.572549	0.661048
0	C	0.789451	0.946139	0.158347
0	C	0.711933	0.472609	0.224596
0	C	0.736607	0.0464479	0.728327
0	C	0.249473	0.474024	0.354392
0	C	0.225267	0.0480106	0.859557
0	C	0.250675	0.546308	0.858859
0	C	0.226212	0.972606	0.355094
0	C	0.713221	0.545105	0.728974
0	C	0.737569	0.970971	0.22396
0	H	0.74069	0.404167	0.225679
0	H	0.708222	0.115478	0.7275
0	H	0.220724	0.405623	0.352252
0	H	0.253569	0.117153	0.86182
0	H	0.221864	0.614674	0.857955
0	H	0.254606	0.903578	0.356061
0	H	0.741958	0.613548	0.73118
0	H	0.709309	0.901772	0.221979
0	C	0.699669	0.502803	0.353148
0	C	0.746999	0.016974	0.857821
0	C	0.261949	0.50552	0.226367
0	C	0.215076	0.0204325	0.729413
0	C	0.262853	0.516259	0.730228
0	C	0.215893	0.00193514	0.225523
0	C	0.70071	0.513552	0.856965
0	C	0.747867	0.998827	0.353999
0	H	0.654497	0.515685	0.367059
0	H	0.791849	0.0032779	0.87453
0	H	0.307042	0.519724	0.213311
0	H	0.170161	0.00816259	0.711863
0	H	0.308021	0.503563	0.716104
0	H	0.171047	0.0156008	0.208695
0	H	0.655607	0.499419	0.86997
0	H	0.792785	0.01136	0.371295
0	H	0.710926	0.439127	0.413417
0	H	0.735094	0.0812514	0.916807
0	H	0.251396	0.441997	0.16518
0	H	0.22771	0.0851018	0.671854
0	H	0.251437	0.579901	0.67006
0	H	0.227829	0.937602	0.16666
0	H	0.711279	0.577047	0.918192
0	H	0.735412	0.93417	0.41177
0	C	0.732234	0.601847	0.382902
0	C	0.713498	0.918888	0.887469
0	C	0.228758	0.60389	0.196626
0	C	0.247956	0.921864	0.69888
0	C	0.230367	0.417116	0.700518
0	C	0.249413	0.0999932	0.195805
0	C	0.733855	0.415128	0.886679
0	C	0.714882	0.0972919	0.384459
0	H	0.72739	0.621052	0.477482
0	H	0.717089	0.900957	0.98263
0	H	0.233544	0.623424	0.102121
0	H	0.244179	0.904719	0.603553
0	H	0.235173	0.397977	0.605909
0	H	0.245873	0.117792	0.100602
0	H	0.729005	0.395503	0.981139
0	H	0.718695	0.114595	0.47974
0	C	0.70826	0.690205	0.30707
0	C	0.7377	0.82907	0.814567
0	C	0.251974	0.692746	0.272689
0	C	0.223208	0.83207	0.771078
0	C	0.254455	0.328776	0.776221
0	C	0.225163	0.18989	0.268499
0	C	0.710651	0.32637	0.81048
0	C	0.73949	0.187075	0.312015
0	H	0.663729	0.70344	0.329344
0	H	0.78153	0.814085	0.840768
0	H	0.296102	0.708547	0.249192
0	H	0.178966	0.819488	0.746182
0	H	0.298982	0.315669	0.753808
0	H	0.181352	0.204827	0.242164
0	H	0.666488	0.310664	0.833769
0	H	0.783723	0.199915	0.336799
0	H	0.730184	0.763923	0.325075
0	H	0.714425	0.756575	0.831227
0	H	0.228714	0.765341	0.256103
0	H	0.245309	0.758722	0.752448
0	H	0.23258	0.255012	0.75823
0	H	0.248456	0.262359	0.251774
0	H	0.733832	0.253686	0.827066
0	H	0.717288	0.260344	0.330549
0	C	0.794626	0.586979	0.354406
0	C	0.651592	0.933838	0.855203
0	C	0.166467	0.587854	0.225042
0	C	0.309977	0.935642	0.73099
0	C	0.167977	0.43178	0.729193
0	C	0.311297	0.0850785	0.22825
0	C	0.796167	0.431137	0.858448
0	C	0.652859	0.0832362	0.352541
0	H	0.811102	0.519204	0.402272
0	H	0.634359	0.00134361	0.902457
0	H	0.150274	0.519687	0.177313
0	H	0.327388	0.00298404	0.683848
0	H	0.151396	0.499489	0.68136
0	H	0.328541	0.0175039	0.181146
0	H	0.812363	0.499212	0.906334
0	H	0.635566	0.0158266	0.399745
0	H	0.818746	0.654382	0.384876
0	H	0.626987	0.866491	0.883997
0	H	0.141923	0.654703	0.194431
0	H	0.334188	0.867939	0.701836
0	H	0.143911	0.364297	0.698777
0	H	0.335928	0.152377	0.199412
0	H	0.820658	0.364202	0.889005
0	H	0.628565	0.150833	0.381717
