#******************************************
#
# CIF file created by Zeo++
# Zeo++ is an open source package to
# analyze microporous materials
#
#*******************************************

_cell_length_a		8.13448(0)
_cell_length_b		11.7334(0)
_cell_length_c		16.6978(0)
_cell_angle_alpha		102.39(0)
_cell_angle_beta		95.1774(0)
_cell_angle_gamma		101.976(0)

_symmetry_space_group_name_H-M		'P1'
_symmetry_Int_Tables_number		1
_symmetry_cell_setting		Triclinic

loop_
_symmetry_equiv_pos_as_xyz
'+x,+y,+z'

loop_
_atom_site_label
_atom_site_type_symbol
_atom_site_fract_x
_atom_site_fract_y
_atom_site_fract_z
0	N	0.0635823	0.446236	0.0857705
0	N	0.943966	0.549034	0.909545
0	C	0.082967	0.503883	0.0279643
0	C	0.924548	0.491295	0.967303
0	C	0.243704	0.581028	0.0140356
0	C	0.763819	0.414143	0.981218
0	H	0.259659	0.564517	0.947799
0	H	0.747821	0.430677	0.0474471
0	H	0.357778	0.568174	0.0480644
0	H	0.649739	0.426969	0.947172
0	H	0.242174	0.676687	0.0330383
0	H	0.765346	0.318482	0.96224
0	C	0.192155	0.450122	0.151274
0	C	0.815395	0.545152	0.844035
0	C	0.28757	0.55994	0.202118
0	C	0.720029	0.435328	0.79318
0	H	0.270144	0.644636	0.190443
0	H	0.737456	0.350634	0.804846
0	C	0.405069	0.559904	0.268824
0	C	0.602531	0.43536	0.72647
0	C	0.425516	0.451229	0.285588
0	C	0.582041	0.544002	0.709697
0	H	0.517786	0.451612	0.337212
0	H	0.489793	0.543626	0.658075
0	C	0.327757	0.34183	0.235762
0	C	0.679808	0.653449	0.759547
0	C	0.211371	0.340729	0.168205
0	C	0.796233	0.654537	0.827078
0	H	0.13595	0.255961	0.129287
0	H	0.871533	0.739279	0.866028
0	C	0.511163	0.675058	0.321006
0	C	0.496444	0.320204	0.6743
0	C	0.662374	0.729529	0.295459
0	C	0.34522	0.265744	0.699842
0	C	0.766746	0.834817	0.34718
0	C	0.240851	0.160457	0.648138
0	H	0.885105	0.876071	0.328372
0	H	0.122503	0.119201	0.666952
0	C	0.719912	0.886861	0.422327
0	C	0.287599	0.108425	0.572963
0	H	0.801646	0.968628	0.462139
0	H	0.205855	0.0266622	0.533166
0	C	0.567947	0.834746	0.446402
0	C	0.439514	0.160559	0.548858
0	H	0.531485	0.876114	0.505023
0	H	0.475889	0.119232	0.490205
0	C	0.462399	0.728655	0.396255
0	C	0.545126	0.266633	0.599024
0	C	0.713762	0.677731	0.212547
0	C	0.293765	0.31754	0.78274
0	H	0.622611	0.59012	0.181861
0	H	0.384893	0.405153	0.813445
0	C	0.705911	0.763785	0.155514
0	C	0.301559	0.231446	0.839749
0	H	0.735333	0.726166	0.0940409
0	H	0.272053	0.269036	0.90121
0	H	0.797104	0.850199	0.180294
0	H	0.210391	0.145035	0.814944
0	H	0.579517	0.78221	0.147751
0	H	0.427947	0.213019	0.847537
0	C	0.890763	0.652703	0.224309
0	C	0.116742	0.342525	0.770939
0	H	0.920836	0.603619	0.166013
0	H	0.0866425	0.391702	0.829202
0	H	0.899532	0.597745	0.269349
0	H	0.107922	0.397359	0.725823
0	H	0.990362	0.735343	0.246419
0	H	0.0171718	0.259868	0.748891
0	C	0.297139	0.674846	0.424132
0	C	0.71038	0.320417	0.571126
0	H	0.230865	0.589228	0.378179
0	H	0.776696	0.406039	0.617069
0	C	0.333157	0.644882	0.508044
0	C	0.674337	0.350341	0.487202
0	H	0.216122	0.601662	0.527688
0	H	0.79134	0.393618	0.467557
0	H	0.393197	0.725388	0.557111
0	H	0.614394	0.269815	0.438142
0	H	0.419313	0.584059	0.505168
0	H	0.588063	0.411081	0.490057
0	C	0.179092	0.761825	0.428095
0	C	0.828351	0.233386	0.567162
0	H	0.0509645	0.718747	0.436773
0	H	0.956514	0.27645	0.558514
0	H	0.167816	0.793003	0.370923
0	H	0.839537	0.20214	0.624308
0	H	0.225293	0.841185	0.479626
0	H	0.782154	0.154062	0.515609
0	C	0.351388	0.228254	0.255869
0	C	0.656146	0.767006	0.739435
0	C	0.254048	0.178825	0.311347
0	C	0.753487	0.816448	0.683946
0	C	0.285702	0.0760848	0.333865
0	C	0.721862	0.919164	0.661439
0	H	0.213307	0.0385019	0.377707
0	H	0.794206	0.956766	0.617592
0	C	0.41012	0.0218048	0.301025
0	C	0.597325	0.973415	0.694244
0	H	0.434457	0.94231	0.319405
0	H	0.572941	0.0528852	0.67585
0	C	0.503682	0.0693087	0.244943
0	C	0.503721	0.925876	0.750297
0	H	0.600039	0.0262525	0.219186
0	H	0.407263	0.968864	0.775998
0	C	0.47521	0.172445	0.221661
0	C	0.532241	0.822755	0.773598
0	C	0.118214	0.23699	0.347637
0	C	0.889275	0.758243	0.647634
0	H	0.0779864	0.292854	0.306084
0	H	0.929476	0.702351	0.689168
0	C	0.192564	0.320546	0.432864
0	C	0.81488	0.674695	0.562413
0	H	0.10083	0.369464	0.458463
0	H	0.906554	0.625723	0.536808
0	H	0.306189	0.387143	0.42884
0	H	0.701243	0.608128	0.56645
0	H	0.229643	0.270991	0.477593
0	H	0.777813	0.72422	0.517666
0	C	0.959229	0.143733	0.352981
0	C	0.0483152	0.851476	0.64227
0	H	0.852728	0.185925	0.365583
0	H	0.154742	0.809242	0.629699
0	H	0.980304	0.0985124	0.402619
0	H	0.0272375	0.896621	0.592582
0	H	0.918175	0.0746054	0.294874
0	H	0.0893378	0.920651	0.700354
0	C	0.578515	0.221926	0.160051
0	C	0.428943	0.773279	0.835205
0	H	0.537475	0.303012	0.148125
0	H	0.469949	0.692176	0.847124
0	C	0.767559	0.261543	0.195117
0	C	0.239924	0.733691	0.800123
0	H	0.841183	0.307937	0.154676
0	H	0.166212	0.687116	0.840548
0	H	0.821991	0.185548	0.201679
0	H	0.18541	0.809661	0.793637
0	H	0.788754	0.323716	0.256276
0	H	0.218734	0.671588	0.738937
0	C	0.546381	0.128441	0.0770203
0	C	0.461057	0.866755	0.918229
0	H	0.612422	0.165172	0.0305329
0	H	0.395063	0.830004	0.964719
0	H	0.41067	0.0993784	0.053049
0	H	0.596778	0.895881	0.942201
0	H	0.59109	0.0482586	0.0827111
0	H	0.416252	0.946906	0.912544
