#******************************************
#
# CIF file created by Zeo++
# Zeo++ is an open source package to
# analyze microporous materials
#
#*******************************************

_cell_length_a		11.8687(0)
_cell_length_b		6.21713(0)
_cell_length_c		13.8322(0)
_cell_angle_alpha		90(0)
_cell_angle_beta		110.278(0)
_cell_angle_gamma		90(0)

_symmetry_space_group_name_H-M		'P1'
_symmetry_Int_Tables_number		1
_symmetry_cell_setting		Monoclinic

loop_
_symmetry_equiv_pos_as_xyz
'+x,+y,+z'

loop_
_atom_site_label
_atom_site_type_symbol
_atom_site_fract_x
_atom_site_fract_y
_atom_site_fract_z
0	C	0.92244	0.692264	0.628553
0	C	0.944536	0.194403	0.381846
0	C	0.997248	0.811626	0.589888
0	C	0.869695	0.312857	0.420927
0	H	0.96925	0.968325	0.553825
0	H	0.898295	0.468221	0.458268
0	C	0.109061	0.725987	0.598111
0	C	0.757373	0.228324	0.411411
0	C	0.195145	0.847128	0.560964
0	C	0.671478	0.348623	0.449098
0	H	0.189071	0.0230909	0.573502
0	H	0.678029	0.524806	0.437508
0	H	0.170426	0.827589	0.47618
0	H	0.696034	0.327055	0.533757
0	C	0.323617	0.769609	0.617167
0	C	0.542775	0.272774	0.392539
0	H	0.385734	0.84224	0.58171
0	H	0.480931	0.343694	0.428772
0	H	0.354165	0.825823	0.69849
0	H	0.512014	0.3318	0.311657
0	C	0.333085	0.526008	0.615186
0	C	0.533146	0.0290941	0.39293
0	H	0.31159	0.461462	0.535915
0	H	0.555218	0.962444	0.47189
0	C	0.141104	0.521499	0.644074
0	C	0.724718	0.0255223	0.363543
0	C	0.0652006	0.4044	0.68342
0	C	0.800276	0.910242	0.323264
0	H	0.0940682	0.248007	0.718925
0	H	0.771007	0.755662	0.286112
0	C	0.954208	0.491744	0.676021
0	C	0.912052	0.996484	0.332087
0	H	0.893911	0.404711	0.706257
0	H	0.972053	0.910613	0.301045
0	C	0.455881	0.444171	0.690391
0	C	0.410049	0.948575	0.317818
0	H	0.475402	0.516264	0.768287
0	H	0.390407	0.0210336	0.240013
0	C	0.460632	0.200892	0.693304
0	C	0.404929	0.705331	0.3146
0	H	0.405424	0.130444	0.61782
0	H	0.460484	0.635107	0.389996
0	H	0.425487	0.133173	0.750849
0	H	0.439413	0.637654	0.256631
0	C	0.688034	0.227105	0.842819
0	C	0.177644	0.73291	0.165984
0	C	0.738138	0.433108	0.856933
0	C	0.129001	0.940026	0.152458
0	H	0.728213	0.538943	0.790887
0	H	0.140028	0.0454708	0.21889
0	C	0.79976	0.507698	0.956467
0	C	0.0675887	0.0159958	0.0531569
0	H	0.839529	0.667837	0.967891
0	H	0.0285928	0.176737	0.0422986
0	C	0.810835	0.37673	0.0421
0	C	0.0556279	0.885839	0.967046
0	C	0.758144	0.171181	0.0268486
0	C	0.106671	0.678936	0.981789
0	H	0.764358	0.0709327	0.093073
0	H	0.0995118	0.578847	0.915305
0	C	0.697402	0.0960232	0.927193
0	C	0.166973	0.602111	0.0812349
0	H	0.658199	0.934477	0.915252
0	H	0.204835	0.439573	0.0927617
0	C	0.879415	0.45457	0.148203
0	C	0.987777	0.966275	0.861242
0	H	0.844994	0.387489	0.206072
0	H	0.0214643	0.899264	0.802914
0	H	0.8782	0.630491	0.154894
0	H	0.990524	0.142328	0.8555
0	H	0.974725	0.406607	0.171473
0	H	0.89203	0.921079	0.837866
0	O	0.248119	0.419394	0.65586
0	O	0.617352	0.923977	0.350945
0	O	0.551678	0.498167	0.653485
0	O	0.31477	0.00283662	0.355315
0	H	0.573988	0.661305	0.668184
0	H	0.292557	0.166062	0.340661
0	O	0.614368	0.887437	0.725226
0	O	0.250957	0.392368	0.283492
0	S	0.617049	0.131557	0.714866
0	S	0.248635	0.63653	0.293761
0	F	0.815273	0.774507	0.619592
0	F	0.0523738	0.275697	0.392477
