#******************************************
#
# CIF file created by Zeo++
# Zeo++ is an open source package to
# analyze microporous materials
#
#*******************************************

_cell_length_a		22.4231(0)
_cell_length_b		10.7606(0)
_cell_length_c		20.2385(0)
_cell_angle_alpha		90(0)
_cell_angle_beta		115.704(0)
_cell_angle_gamma		90(0)

_symmetry_space_group_name_H-M		'P1'
_symmetry_Int_Tables_number		1
_symmetry_cell_setting		Monoclinic

loop_
_symmetry_equiv_pos_as_xyz
'+x,+y,+z'

loop_
_atom_site_label
_atom_site_type_symbol
_atom_site_fract_x
_atom_site_fract_y
_atom_site_fract_z
0	Br	0.09769	0.817407	0.181621
0	Br	0.756862	0.838988	0.769459
0	Br	0.601336	0.337773	0.193268
0	Br	0.298729	0.324421	0.8225
0	Br	0.0242974	0.434718	0.0634971
0	Br	0.828506	0.445427	0.875955
0	Br	0.523597	0.964985	0.064285
0	Br	0.347847	0.913472	0.919104
0	N	0.138887	0.567432	0.274762
0	N	0.712584	0.572575	0.67439
0	N	0.632642	0.0680442	0.275509
0	N	0.222558	0.129369	0.699517
0	H	0.104776	0.620558	0.283069
0	H	0.74702	0.621263	0.664302
0	H	0.597441	0.118285	0.283959
0	H	0.264257	0.156393	0.694848
0	O	0.216104	0.357227	0.0443847
0	O	0.625927	0.364091	0.904337
0	O	0.714961	0.873835	0.0429112
0	O	0.133361	0.845176	0.913598
0	H	0.19186	0.33278	0.990648
0	H	0.65165	0.34343	0.95879
0	H	0.689797	0.84879	0.988882
0	H	0.167696	0.821661	0.964995
0	O	0.339688	0.32304	0.129455
0	O	0.505556	0.30653	0.823673
0	O	0.838466	0.829746	0.126727
0	O	0.0103141	0.810962	0.823708
0	O	0.3848	0.263949	0.285157
0	O	0.467421	0.260246	0.668659
0	O	0.884238	0.773528	0.281376
0	O	0.969916	0.760667	0.664919
0	O	0.498433	0.118336	0.264857
0	O	0.35914	0.0936417	0.691096
0	O	0.993145	0.613691	0.257665
0	O	0.857349	0.606986	0.686565
0	O	0.326679	0.898967	0.258202
0	O	0.536574	0.901037	0.68904
0	O	0.817725	0.41805	0.258503
0	O	0.0317181	0.400853	0.68673
0	H	0.332855	0.973842	0.290046
0	H	0.528893	0.978056	0.658536
0	H	0.825474	0.496368	0.288321
0	H	0.0284262	0.480292	0.659588
0	O	0.27216	0.863904	0.0513
0	O	0.58518	0.853652	0.896315
0	O	0.766046	0.367201	0.0522196
0	O	0.0769023	0.342541	0.888347
0	O	0.162069	0.862454	0.0570138
0	O	0.697468	0.878524	0.902493
0	O	0.652044	0.387004	0.0469978
0	O	0.190605	0.358937	0.897131
0	H	0.130025	0.917645	0.0180716
0	H	0.738646	0.928817	0.924838
0	H	0.60991	0.434384	0.0267574
0	H	0.236012	0.394923	0.913677
0	O	0.190257	0.287127	0.259087
0	O	0.660321	0.30072	0.695113
0	O	0.685045	0.802694	0.255229
0	O	0.168229	0.790425	0.702656
0	O	0.330282	0.322179	0.0132355
0	O	0.531206	0.336774	0.944572
0	O	0.833828	0.821866	0.0123666
0	O	0.0173233	0.803016	0.939184
0	O	0.341641	0.127346	0.337755
0	O	0.512313	0.13262	0.613337
0	O	0.840384	0.644635	0.337349
0	O	0.0187745	0.62991	0.614832
0	O	0.0854762	0.242096	0.24032
0	O	0.763401	0.241655	0.713281
0	O	0.578271	0.75947	0.229274
0	O	0.272258	0.869566	0.75312
0	O	0.0933914	0.394886	0.35005
0	O	0.756372	0.39269	0.600131
0	O	0.589987	0.88873	0.351934
0	O	0.253178	0.93043	0.613343
0	H	0.0643319	0.453389	0.311327
0	H	0.785419	0.456587	0.634837
0	H	0.56353	0.960004	0.321061
0	H	0.289325	0.983683	0.649955
0	O	0.206093	0.544028	0.217961
0	O	0.646087	0.56421	0.732712
0	O	0.704984	0.060873	0.224455
0	O	0.168751	0.0732718	0.767082
0	C	0.226492	0.257618	0.0944504
0	C	0.620612	0.262454	0.857128
0	C	0.724521	0.774093	0.0925923
0	C	0.123977	0.750278	0.860559
0	C	0.298958	0.21129	0.11409
0	C	0.550807	0.20218	0.838618
0	C	0.795827	0.721378	0.111595
0	C	0.0515907	0.701113	0.837495
0	H	0.299075	0.16701	0.0635927
0	H	0.552648	0.154392	0.888724
0	H	0.794188	0.675815	0.0605902
0	H	0.0500795	0.651908	0.886103
0	C	0.332558	0.123541	0.18064
0	C	0.521141	0.114888	0.771234
0	C	0.828124	0.632736	0.177887
0	C	0.0210371	0.616934	0.768659
0	H	0.298993	0.11312	0.208599
0	H	0.555959	0.112831	0.744291
0	H	0.794613	0.628103	0.206365
0	H	0.0567774	0.613104	0.742916
0	C	0.398126	0.169767	0.241674
0	C	0.45558	0.160341	0.710294
0	C	0.895096	0.67617	0.237734
0	C	0.956079	0.664934	0.707141
0	C	0.451039	0.0722228	0.291939
0	C	0.405318	0.0618382	0.658343
0	C	0.946333	0.57773	0.288481
0	C	0.903229	0.570844	0.654411
0	H	0.470509	0.0941238	0.350952
0	H	0.381824	0.0918392	0.600181
0	H	0.968598	0.605682	0.346842
0	H	0.880816	0.602465	0.596632
0	C	0.439708	0.934732	0.276359
0	C	0.421584	0.924992	0.666507
0	C	0.931162	0.440894	0.277641
0	C	0.91674	0.43329	0.661908
0	H	0.475338	0.89918	0.255843
0	H	0.385109	0.875792	0.681061
0	H	0.967322	0.395382	0.261129
0	H	0.87854	0.386681	0.674879
0	H	0.451568	0.882509	0.328003
0	H	0.413943	0.885549	0.612554
0	H	0.939796	0.396239	0.330701
0	H	0.909455	0.392904	0.608179
0	C	0.36893	0.901655	0.221953
0	C	0.492417	0.893971	0.722468
0	C	0.859899	0.411878	0.222468
0	C	0.986466	0.398639	0.718974
0	H	0.366144	0.802725	0.203038
0	H	0.496194	0.793499	0.738636
0	H	0.855326	0.311649	0.205561
0	H	0.987692	0.297637	0.734116
0	C	0.340108	0.990873	0.154358
0	C	0.516541	0.977318	0.79258
0	C	0.833034	0.497474	0.153234
0	C	0.013136	0.480543	0.789727
0	C	0.273906	0.927521	0.101677
0	C	0.583803	0.921704	0.848067
0	C	0.76625	0.436155	0.0994933
0	C	0.0783972	0.41394	0.842821
0	C	0.211443	0.931283	0.115614
0	C	0.648021	0.939877	0.839222
0	C	0.702347	0.447976	0.109758
0	C	0.143157	0.424856	0.834418
0	H	0.22182	0.872341	0.165841
0	H	0.642967	0.881537	0.790496
0	H	0.708134	0.386131	0.157128
0	H	0.13676	0.369129	0.784493
0	C	0.189209	0.0598117	0.121575
0	C	0.665752	0.0714991	0.833142
0	C	0.684054	0.578206	0.117817
0	C	0.164249	0.55552	0.832198
0	C	0.188114	0.104291	0.183561
0	C	0.665986	0.117768	0.771028
0	C	0.68418	0.623072	0.180214
0	C	0.169209	0.603806	0.772966
0	C	0.174972	0.242393	0.184282
0	C	0.674096	0.257374	0.769456
0	C	0.672038	0.7616	0.180814
0	C	0.180345	0.742661	0.776
0	H	0.121097	0.261263	0.149875
0	H	0.726304	0.284882	0.805376
0	H	0.618271	0.782636	0.145041
0	H	0.233319	0.764011	0.814473
0	C	0.219158	0.318506	0.15945
0	C	0.624767	0.324483	0.790493
0	C	0.71828	0.835498	0.158072
0	C	0.132614	0.814531	0.797533
0	H	0.26802	0.337679	0.205584
0	H	0.575292	0.331281	0.743721
0	H	0.767157	0.849816	0.204373
0	H	0.0841829	0.829309	0.750095
0	H	0.198063	0.413893	0.141807
0	H	0.639585	0.424175	0.803869
0	H	0.699411	0.93263	0.142109
0	H	0.151299	0.911906	0.814796
0	C	0.174474	0.149613	0.057934
0	C	0.676783	0.162058	0.895613
0	C	0.670825	0.668823	0.0548207
0	C	0.174965	0.640955	0.896338
0	C	0.183147	0.0974127	0.992377
0	C	0.668676	0.109817	0.961499
0	C	0.680191	0.618414	0.989164
0	C	0.160999	0.586436	0.957825
0	H	0.233507	0.0662629	0.00511016
0	H	0.618814	0.075856	0.949223
0	H	0.731843	0.596308	0.00165792
0	H	0.108968	0.562999	0.942315
0	H	0.169611	0.168183	0.948104
0	H	0.681118	0.182465	0.00439424
0	H	0.663083	0.687981	0.94424
0	H	0.175995	0.654079	0.00348074
0	H	0.149788	0.0183367	0.9661
0	H	0.703195	0.0328671	0.988397
0	H	0.651186	0.533868	0.965204
0	H	0.190116	0.501928	0.98178
0	C	0.102882	0.198755	0.0257662
0	C	0.746859	0.218556	0.927008
0	C	0.599582	0.719603	0.0241522
0	C	0.247059	0.687592	0.933213
0	H	0.0713546	0.153214	0.97327
0	H	0.777823	0.185809	0.983346
0	H	0.566368	0.671954	0.973183
0	H	0.275262	0.644664	0.987549
0	H	0.101466	0.298369	0.0117187
0	H	0.745068	0.320285	0.933009
0	H	0.598479	0.818229	0.00894685
0	H	0.248784	0.788328	0.94447
0	H	0.0783138	0.184439	0.0615683
0	H	0.774318	0.196963	0.895114
0	H	0.576784	0.710422	0.0621442
0	H	0.275217	0.669452	0.901465
0	C	0.201744	0.0345415	0.251847
0	C	0.654798	0.0500336	0.702799
0	C	0.699659	0.557392	0.250255
0	C	0.162851	0.532371	0.707645
0	H	0.223027	0.941394	0.252987
0	H	0.635063	0.955109	0.700317
0	H	0.723283	0.465967	0.254159
0	H	0.144173	0.436729	0.70712
0	H	0.156691	0.0250153	0.260404
0	H	0.700724	0.0457354	0.69536
0	H	0.655378	0.54636	0.259843
0	H	0.210749	0.521973	0.705328
0	H	0.237719	0.0844424	0.30074
0	H	0.618226	0.098578	0.653686
0	H	0.734814	0.612029	0.297585
0	H	0.128425	0.576952	0.656133
0	C	0.384533	0.994291	0.114356
0	C	0.468749	0.957824	0.827243
0	C	0.877947	0.490263	0.113967
0	C	0.966723	0.474438	0.827203
0	H	0.436225	0.0161212	0.151061
0	H	0.418372	0.990785	0.792418
0	H	0.930422	0.504831	0.150499
0	H	0.914467	0.485008	0.788677
0	H	0.367271	0.0649309	0.0706332
0	H	0.486987	0.00377864	0.881171
0	H	0.863359	0.559266	0.0696404
0	H	0.97846	0.547163	0.869332
0	H	0.383903	0.905642	0.0865587
0	H	0.464307	0.858903	0.838795
0	H	0.87405	0.399084	0.0873957
0	H	0.971809	0.385881	0.856775
0	C	0.455433	0.225741	0.227408
0	C	0.397789	0.205999	0.72661
0	C	0.952796	0.724218	0.221706
0	C	0.899052	0.7156	0.723513
0	H	0.448256	0.230176	0.170887
0	H	0.405829	0.210525	0.784279
0	H	0.945221	0.728132	0.164346
0	H	0.907429	0.717926	0.780992
0	H	0.476984	0.310735	0.257795
0	H	0.372281	0.288758	0.695304
0	H	0.976895	0.808557	0.25225
0	H	0.875586	0.801013	0.694239
0	C	0.347791	0.375435	0.0717991
0	C	0.504854	0.373192	0.881653
0	C	0.850704	0.876316	0.0703875
0	C	0.000834809	0.859029	0.881934
0	C	0.354028	0.234289	0.328894
0	C	0.497407	0.237221	0.623289
0	C	0.854919	0.749363	0.327072
0	C	0.00190531	0.734288	0.622075
0	C	0.341712	0.34904	0.361438
0	C	0.506424	0.354631	0.590414
0	C	0.846398	0.866695	0.360305
0	C	0.0108993	0.850295	0.587902
0	H	0.37358	0.426606	0.360824
0	H	0.472591	0.428702	0.590725
0	H	0.875935	0.943445	0.353585
0	H	0.981615	0.928518	0.593441
0	H	0.348402	0.331883	0.417645
0	H	0.499858	0.339199	0.533846
0	H	0.859461	0.854922	0.418992
0	H	0.998056	0.83641	0.529416
0	H	0.289517	0.380876	0.328819
0	H	0.557822	0.391034	0.622776
0	H	0.793412	0.896942	0.332477
0	H	0.0636822	0.878625	0.615428
0	C	0.384895	0.492928	0.0932864
0	C	0.460751	0.480977	0.849663
0	C	0.890177	0.990767	0.0953441
0	C	0.963137	0.975686	0.857684
0	C	0.407049	0.540321	0.164536
0	C	0.462552	0.543122	0.789661
0	C	0.887571	0.060908	0.152448
0	C	0.966788	0.0444845	0.800696
0	H	0.396223	0.489643	0.204851
0	H	0.498966	0.515582	0.769865
0	H	0.856562	0.0303987	0.178773
0	H	0.998471	0.012526	0.775513
0	C	0.442623	0.651245	0.182579
0	C	0.417518	0.638756	0.755986
0	C	0.925026	0.169247	0.175026
0	C	0.929347	0.15258	0.776605
0	H	0.462222	0.68708	0.238403
0	H	0.418061	0.686984	0.708888
0	H	0.92434	0.222916	0.22049
0	H	0.931923	0.206015	0.731912
0	C	0.454348	0.715711	0.129334
0	C	0.372016	0.672713	0.782839
0	C	0.963102	0.209361	0.139684
0	C	0.8895	0.193013	0.809679
0	H	0.482166	0.803125	0.144425
0	H	0.337481	0.748761	0.756608
0	H	0.991312	0.296037	0.157323
0	H	0.860444	0.278314	0.790108
0	C	0.432217	0.668218	0.0582211
0	C	0.370858	0.611501	0.843269
0	C	0.966359	0.138269	0.0833847
0	C	0.885736	0.124103	0.866436
0	H	0.441718	0.719021	0.017189
0	H	0.335278	0.640201	0.864043
0	H	0.997427	0.168191	0.0569648
0	H	0.853668	0.155481	0.891233
0	C	0.398247	0.555607	0.0402597
0	C	0.415555	0.515444	0.877251
0	C	0.930459	0.0279992	0.0617373
0	C	0.922487	0.0150802	0.890381
0	H	0.382437	0.514939	0.985558
0	H	0.4154	0.467853	0.925124
0	H	0.9336	0.970189	0.0185936
0	H	0.919702	0.959942	0.934658
0	C	0.13762	0.293072	0.276594
0	C	0.713085	0.298021	0.677477
0	C	0.630714	0.804539	0.270036
0	C	0.218192	0.860436	0.701376
0	C	0.153556	0.374039	0.344495
0	C	0.697187	0.374994	0.608268
0	C	0.64869	0.87313	0.342508
0	C	0.197287	0.929086	0.628597
0	H	0.184653	0.321074	0.395566
0	H	0.665433	0.31903	0.558619
0	H	0.681265	0.814459	0.390024
0	H	0.159369	0.876481	0.58146
0	C	0.187219	0.497128	0.338974
0	C	0.663416	0.498634	0.612649
0	C	0.681611	0.998439	0.340055
0	C	0.171589	0.0606996	0.636391
0	H	0.230531	0.468913	0.326337
0	H	0.621638	0.471831	0.628451
0	H	0.726008	0.975015	0.328218
0	H	0.128065	0.0443689	0.650446
0	C	0.153758	0.582334	0.214861
0	C	0.698373	0.598411	0.733885
0	C	0.651694	0.0958418	0.219872
0	C	0.220067	0.111362	0.766939
0	C	0.100893	0.644738	0.145764
0	C	0.752056	0.663003	0.801783
0	C	0.602124	0.167399	0.152569
0	C	0.280517	0.144287	0.839325
0	C	0.0303954	0.593247	0.117529
0	C	0.822259	0.610919	0.828546
0	C	0.530312	0.122511	0.119882
0	C	0.342939	0.0659066	0.856801
0	H	0.0185891	0.565943	0.163952
0	H	0.834359	0.589652	0.781587
0	H	0.514946	0.0923767	0.16331
0	H	0.342293	0.0230704	0.805964
0	C	0.126502	0.64887	0.0883535
0	C	0.728023	0.665265	0.860711
0	C	0.631326	0.17207	0.0981633
0	C	0.258152	0.140927	0.899167
0	H	0.13516	0.555402	0.0717589
0	H	0.723339	0.571829	0.880162
0	H	0.642152	0.0780417	0.0839008
0	H	0.244759	0.0460722	0.90892
0	H	0.175521	0.694468	0.10887
0	H	0.677829	0.704902	0.840924
0	H	0.679584	0.22026	0.120556
0	H	0.211525	0.194424	0.884162
0	H	0.0930773	0.700771	0.0388075
0	H	0.760926	0.720888	0.908785
0	H	0.599032	0.219969	0.0465865
0	H	0.295226	0.177724	0.951513
0	C	0.978622	0.680856	0.0651423
0	C	0.873926	0.694369	0.884304
0	C	0.482699	0.21719	0.0690552
0	C	0.405936	0.136604	0.900429
0	H	0.933876	0.632706	0.0259195
0	H	0.920361	0.645561	0.918591
0	H	0.434705	0.176152	0.0311537
0	H	0.44996	0.0753936	0.924886
0	H	0.997657	0.7356	0.0319029
0	H	0.856236	0.737588	0.922291
0	H	0.502938	0.264769	0.0345627
0	H	0.403102	0.187985	0.946397
0	H	0.961638	0.747679	0.0947543
0	H	0.887826	0.770844	0.857636
0	H	0.470431	0.290879	0.0988852
0	H	0.417962	0.203892	0.866705
0	C	0.213609	0.569311	0.410026
0	C	0.632284	0.562464	0.538816
0	C	0.708144	0.0670557	0.412314
0	C	0.144062	0.128459	0.56386
0	C	0.174835	0.593264	0.447335
0	C	0.659219	0.552838	0.488135
0	C	0.687282	0.0421108	0.466997
0	C	0.166663	0.105613	0.510385
0	H	0.124296	0.557848	0.426001
0	H	0.70649	0.505436	0.503086
0	H	0.645776	0.979161	0.456516
0	H	0.212196	0.0527731	0.523935
0	C	0.201383	0.660259	0.512981
0	C	0.62526	0.601732	0.417612
0	C	0.720211	0.0964307	0.536308
0	C	0.129888	0.147144	0.43862
0	H	0.170901	0.679065	0.541573
0	H	0.645795	0.591179	0.378027
0	H	0.704831	0.0748902	0.579303
0	H	0.146146	0.125159	0.396393
0	C	0.266764	0.702539	0.542005
0	C	0.564762	0.662447	0.397604
0	C	0.773544	0.176476	0.551007
0	C	0.0717544	0.215092	0.420597
0	H	0.286747	0.757072	0.592715
0	H	0.539199	0.703242	0.342746
0	H	0.799606	0.217389	0.605752
0	H	0.0420628	0.243268	0.363725
0	C	0.305981	0.676706	0.505588
0	C	0.537956	0.673213	0.448203
0	C	0.792607	0.205824	0.495596
0	C	0.0525747	0.248105	0.475382
0	H	0.357061	0.70856	0.528222
0	H	0.490857	0.720451	0.432878
0	H	0.83287	0.270907	0.506238
0	H	0.00967949	0.307435	0.462415
0	C	0.279505	0.610585	0.43971
0	C	0.571533	0.623582	0.518597
0	C	0.760121	0.151366	0.426497
0	C	0.0883619	0.204422	0.546815
0	H	0.310063	0.592169	0.411167
0	H	0.550568	0.633161	0.557946
0	H	0.775517	0.173765	0.383586
0	H	0.0723834	0.228112	0.589136
