#******************************************
#
# CIF file created by Zeo++
# Zeo++ is an open source package to
# analyze microporous materials
#
#*******************************************

_cell_length_a		23.5842(0)
_cell_length_b		23.1784(0)
_cell_length_c		12.0453(0)
_cell_angle_alpha		90(0)
_cell_angle_beta		90(0)
_cell_angle_gamma		117.644(0)

_symmetry_space_group_name_H-M		'P1'
_symmetry_Int_Tables_number		1
_symmetry_cell_setting		Monoclinic

loop_
_symmetry_equiv_pos_as_xyz
'+x,+y,+z'

loop_
_atom_site_label
_atom_site_type_symbol
_atom_site_fract_x
_atom_site_fract_y
_atom_site_fract_z
0	C	0.843025	0.270782	0.166778
0	C	0.697611	0.569215	0.817991
0	C	0.411547	0.166695	0.484154
0	C	0.116994	0.728381	0.647676
0	C	0.255324	0.424009	0.318466
0	C	0.548826	0.849995	0.995449
0	C	0.77531	0.216422	0.184808
0	C	0.757344	0.560613	0.833396
0	C	0.414543	0.233579	0.494244
0	C	0.17959	0.790359	0.665754
0	C	0.194216	0.430044	0.335274
0	C	0.534619	0.779189	0.00810193
0	H	0.757657	0.218596	0.268224
0	H	0.762591	0.548895	0.919789
0	H	0.417603	0.248363	0.581555
0	H	0.191466	0.798657	0.754345
0	H	0.186496	0.436313	0.423354
0	H	0.517788	0.760987	0.0921424
0	H	0.77216	0.167994	0.173721
0	H	0.800712	0.604572	0.809141
0	H	0.372428	0.234286	0.456998
0	H	0.176877	0.833078	0.632342
0	H	0.152114	0.387095	0.303877
0	H	0.576773	0.772454	0.990256
0	H	0.741502	0.220275	0.125127
0	H	0.755566	0.520364	0.781701
0	H	0.456958	0.271757	0.452472
0	H	0.220246	0.788352	0.624187
0	H	0.196085	0.472453	0.291003
0	H	0.496588	0.747213	0.950068
0	C	0.894113	0.258339	0.222293
0	C	0.700266	0.626783	0.882484
0	C	0.358937	0.115593	0.55531
0	C	0.0607082	0.729722	0.706917
0	C	0.252574	0.363614	0.37295
0	C	0.607058	0.897121	0.0607974
0	H	0.94241	0.296528	0.200748
0	H	0.658181	0.634011	0.864491
0	H	0.35391	0.0666185	0.539179
0	H	0.0153658	0.686756	0.685218
0	H	0.294986	0.35772	0.351293
0	H	0.618266	0.947983	0.043578
0	H	0.891294	0.211675	0.196824
0	H	0.7427	0.672359	0.861632
0	H	0.312157	0.113047	0.538965
0	H	0.0554763	0.772861	0.684904
0	H	0.210528	0.319116	0.346434
0	H	0.649936	0.8924	0.0399189
0	H	0.890011	0.257966	0.313092
0	H	0.700582	0.618971	0.97268
0	H	0.369643	0.125317	0.644549
0	H	0.0656332	0.729109	0.797458
0	H	0.251423	0.366446	0.463766
0	H	0.598857	0.889488	0.150838
0	C	0.848849	0.337687	0.19055
0	C	0.636058	0.506532	0.835387
0	C	0.476396	0.168745	0.500243
0	C	0.122607	0.666582	0.668508
0	C	0.315519	0.48639	0.345749
0	C	0.490063	0.859609	0.0137787
0	H	0.897322	0.376878	0.172311
0	H	0.593507	0.513032	0.817379
0	H	0.472499	0.119495	0.498335
0	H	0.0765615	0.622706	0.654635
0	H	0.359036	0.481059	0.3311
0	H	0.500011	0.910157	0.996677
0	H	0.839332	0.343255	0.277936
0	H	0.631106	0.489199	0.921296
0	H	0.498136	0.190906	0.579694
0	H	0.137103	0.664021	0.754102
0	H	0.316576	0.50038	0.432869
0	H	0.472803	0.849141	0.0995651
0	H	0.815507	0.347257	0.139692
0	H	0.633475	0.467441	0.780828
0	H	0.510064	0.196867	0.434268
0	H	0.157556	0.662825	0.61273
0	H	0.31975	0.527152	0.293952
0	H	0.450523	0.828036	0.959186
0	O	0.84949	0.265113	0.0428629
0	O	0.703105	0.586088	0.696291
0	O	0.393212	0.150632	0.364599
0	O	0.108256	0.732926	0.524678
0	O	0.253399	0.414192	0.194991
0	O	0.566009	0.860528	0.874044
0	C	0.901613	0.310796	0.987942
0	C	0.655626	0.594145	0.645098
0	C	0.38706	0.0933901	0.320925
0	C	0.0572678	0.684158	0.472142
0	C	0.302719	0.409812	0.142656
0	C	0.577481	0.917746	0.824028
0	O	0.946572	0.357019	0.0307286
0	O	0.608357	0.591549	0.690501
0	O	0.391313	0.0505221	0.372742
0	O	0.014966	0.636637	0.517424
0	O	0.350164	0.412607	0.187736
0	O	0.57716	0.964393	0.869956
0	N	0.89763	0.293577	0.874454
0	N	0.67232	0.610564	0.532647
0	N	0.370003	0.0908815	0.208055
0	N	0.0588415	0.699611	0.358508
0	N	0.287148	0.397001	0.0294699
0	N	0.594278	0.915729	0.71196
0	H	0.856512	0.252731	0.846794
0	H	0.714258	0.611052	0.503061
0	H	0.37074	0.133144	0.174835
0	H	0.0992034	0.740401	0.328443
0	H	0.24463	0.395981	0.00112886
0	H	0.593232	0.872602	0.682853
0	C	0.92613	0.346685	0.794875
0	C	0.620036	0.589981	0.45329
0	C	0.38966	0.0551008	0.13111
0	C	0.0278626	0.645381	0.281692
0	C	0.338939	0.417472	0.949392
0	C	0.5744	0.94953	0.631304
0	C	0.897234	0.392722	0.768867
0	C	0.57399	0.517617	0.43042
0	C	0.460353	0.0746963	0.105035
0	C	0.0534618	0.596182	0.258264
0	C	0.383951	0.48952	0.922519
0	C	0.503302	0.92837	0.606276
0	H	0.933562	0.443825	0.750745
0	H	0.523802	0.507458	0.412974
0	H	0.469537	0.0326307	0.0866823
0	H	0.015198	0.545685	0.242113
0	H	0.434066	0.500427	0.903071
0	H	0.492959	0.969636	0.587299
0	C	0.891648	0.34162	0.684269
0	C	0.623926	0.557695	0.344232
0	C	0.420191	0.0883835	0.0207689
0	C	0.0614588	0.647097	0.171615
0	C	0.333106	0.447509	0.83903
0	C	0.543798	0.914955	0.522076
0	H	0.844869	0.297536	0.67351
0	H	0.666727	0.55012	0.333893
0	H	0.427734	0.139283	0.0117668
0	H	0.109436	0.689305	0.159631
0	H	0.289966	0.454561	0.829268
0	H	0.537249	0.864497	0.513654
0	C	0.8422	0.392265	0.82873
0	C	0.574784	0.462582	0.491667
0	C	0.515611	0.126064	0.165011
0	C	0.107656	0.594459	0.31754
0	C	0.382533	0.544128	0.984223
0	C	0.448489	0.876087	0.665802
0	C	0.782662	0.370524	0.776662
0	C	0.59871	0.423534	0.442357
0	C	0.557968	0.18373	0.111287
0	C	0.165486	0.610535	0.262584
0	C	0.361983	0.585339	0.932738
0	C	0.409608	0.816587	0.613476
0	H	0.77483	0.348501	0.694375
0	H	0.621504	0.43635	0.36102
0	H	0.548274	0.193016	0.0263985
0	H	0.172294	0.62848	0.177472
0	H	0.343419	0.575197	0.848252
0	H	0.422451	0.806312	0.531531
0	C	0.733661	0.377834	0.8297
0	C	0.592724	0.367795	0.497005
0	C	0.612591	0.229293	0.166629
0	C	0.214192	0.603206	0.316674
0	C	0.36543	0.639431	0.989654
0	C	0.354004	0.770671	0.665784
0	H	0.687821	0.361989	0.787945
0	H	0.61043	0.337032	0.457392
0	H	0.645091	0.274317	0.124915
0	H	0.258996	0.615635	0.273537
0	H	0.349767	0.671527	0.948734
0	H	0.323657	0.724832	0.624211
0	C	0.743756	0.406136	0.935055
0	C	0.563468	0.351199	0.601204
0	C	0.625629	0.217094	0.274797
0	C	0.205221	0.579667	0.42548
0	C	0.38914	0.652352	0.0980695
0	C	0.336904	0.783837	0.770263
0	H	0.706029	0.412835	0.976074
0	H	0.558227	0.307511	0.643857
0	H	0.668561	0.252094	0.317759
0	H	0.242748	0.57318	0.467693
0	H	0.392516	0.694797	0.142554
0	H	0.293145	0.748583	0.810723
0	C	0.802758	0.426419	0.988085
0	C	0.540496	0.390763	0.651092
0	C	0.583362	0.159477	0.328325
0	C	0.147608	0.563934	0.480377
0	C	0.409062	0.610794	0.149844
0	C	0.376183	0.842763	0.823227
0	H	0.810804	0.448461	0.070382
0	H	0.517561	0.378102	0.73237
0	H	0.59345	0.149378	0.412502
0	H	0.140243	0.545224	0.565066
0	H	0.427747	0.62074	0.234362
0	H	0.363032	0.853388	0.904697
0	C	0.851949	0.419466	0.935568
0	C	0.546351	0.446508	0.597111
0	C	0.528165	0.114388	0.274396
0	C	0.0988948	0.571404	0.427128
0	C	0.40573	0.556725	0.0935585
0	C	0.432139	0.888517	0.771974
0	H	0.898144	0.435615	0.976821
0	H	0.528857	0.47769	0.636777
0	H	0.494641	0.0698424	0.31723
0	H	0.0538925	0.559111	0.470321
0	H	0.421241	0.524229	0.134354
0	H	0.463165	0.934181	0.814284
0	C	0.926584	0.363575	0.576986
0	C	0.60183	0.570914	0.23597
0	C	0.405107	0.0548411	0.911345
0	C	0.0264821	0.625158	0.0645318
0	C	0.35265	0.430514	0.731367
0	C	0.557033	0.948374	0.412569
0	C	0.924566	0.415538	0.520112
0	C	0.552566	0.518784	0.179228
0	C	0.45523	0.0545809	0.848688
0	C	0.0283527	0.573054	0.00791239
0	C	0.401051	0.479701	0.668324
0	C	0.505282	0.947019	0.352696
0	H	0.8998	0.440652	0.556623
0	H	0.529497	0.470078	0.216604
0	H	0.503285	0.0746882	0.883625
0	H	0.0533247	0.547921	0.0441752
0	H	0.426069	0.529233	0.700519
0	H	0.457563	0.925036	0.389338
0	C	0.954208	0.435233	0.416837
0	C	0.532919	0.528761	0.0749348
0	C	0.443748	0.028915	0.741356
0	C	0.998082	0.553051	0.905236
0	C	0.417503	0.465292	0.564356
0	C	0.514753	0.973643	0.246262
0	H	0.951734	0.475274	0.372498
0	H	0.495103	0.487671	0.0302159
0	H	0.483409	0.0302154	0.692065
0	H	0.000174651	0.512738	0.860812
0	H	0.454698	0.504278	0.515054
0	H	0.473889	0.971223	0.199151
0	C	0.986872	0.403777	0.370575
0	C	0.561529	0.590998	0.0277344
0	C	0.381848	0.00161162	0.6973
0	C	0.965216	0.58442	0.859488
0	C	0.386791	0.401462	0.524004
0	C	0.576288	0.00362596	0.200542
0	H	0.00996744	0.419045	0.289833
0	H	0.545883	0.598694	0.946423
0	H	0.372841	0.981197	0.613709
0	H	0.9412	0.568481	0.77955
0	H	0.399826	0.390119	0.442857
0	H	0.583686	0.0249947	0.117814
0	C	0.9896	0.35262	0.427729
0	C	0.610137	0.643002	0.0846107
0	C	0.331712	0.000731698	0.760454
0	C	0.963139	0.636095	0.915976
0	C	0.339262	0.352256	0.587468
0	C	0.627984	0.00602699	0.26087
0	H	0.0152622	0.32829	0.391946
0	H	0.632497	0.691476	0.047861
0	H	0.283497	0.979517	0.726258
0	H	0.937658	0.660627	0.88024
0	H	0.315464	0.30243	0.556435
0	H	0.67594	0.0294207	0.225438
0	C	0.959225	0.332035	0.530517
0	C	0.630783	0.633147	0.188418
0	C	0.34313	0.0276398	0.867093
0	C	0.993981	0.656882	0.0183076
0	C	0.32162	0.36662	0.690552
0	C	0.618545	0.977908	0.366425
0	H	0.961018	0.291656	0.573986
0	H	0.669186	0.673761	0.231712
0	H	0.303987	0.0277081	0.915041
0	H	0.992659	0.697511	0.0616086
0	H	0.283901	0.328157	0.738759
0	H	0.658911	0.978977	0.412128
0	C	0.999064	0.379862	0.796032
0	C	0.589032	0.634892	0.45317
0	C	0.34551	0.981892	0.133882
0	C	0.954913	0.615085	0.285153
0	C	0.37096	0.373579	0.950136
0	C	0.618578	0.0227144	0.630657
0	O	0.0311604	0.43931	0.800575
0	O	0.53091	0.613994	0.459869
0	O	0.366133	0.942177	0.140235
0	O	0.920982	0.556055	0.291934
0	O	0.42929	0.395235	0.952955
0	O	0.598143	0.0625264	0.636801
0	N	0.0273031	0.338989	0.789539
0	N	0.630694	0.70117	0.443914
0	N	0.280138	0.962287	0.127799
0	N	0.928831	0.657989	0.279869
0	N	0.329863	0.307039	0.947482
0	N	0.683802	0.0417617	0.622033
0	H	0.000151507	0.289499	0.790196
0	H	0.679183	0.718149	0.443324
0	H	0.263416	0.99585	0.127385
0	H	0.957507	0.70721	0.277662
0	H	0.281316	0.289539	0.949726
0	H	0.70028	0.00803315	0.62093
0	C	0.0961124	0.3651	0.778128
0	C	0.606898	0.748602	0.433551
0	C	0.233591	0.894353	0.113482
0	C	0.860161	0.634504	0.270245
0	C	0.354401	0.260229	0.939416
0	C	0.730468	0.109845	0.609641
0	C	0.127342	0.402319	0.670768
0	C	0.568172	0.745168	0.328801
0	C	0.235934	0.860858	0.00441929
0	C	0.827113	0.596951	0.164218
0	C	0.389614	0.259936	0.831894
0	C	0.725964	0.144725	0.503977
0	H	0.0940549	0.403875	0.607117
0	H	0.564206	0.708332	0.26614
0	H	0.271893	0.892406	0.942669
0	H	0.859223	0.592957	0.100732
0	H	0.391492	0.294343	0.7663
0	H	0.689405	0.113476	0.442565
0	C	0.124516	0.336375	0.692613
0	C	0.634201	0.802632	0.345225
0	C	0.179927	0.87471	0.0266006
0	C	0.833082	0.66431	0.18421
0	C	0.32442	0.203033	0.857262
0	C	0.782914	0.131678	0.51996
0	H	0.169178	0.335539	0.719613
0	H	0.636904	0.849854	0.371052
0	H	0.133626	0.833257	0.0519329
0	H	0.789569	0.667404	0.211633
0	H	0.323001	0.156923	0.886653
0	H	0.829273	0.173156	0.544969
0	C	0.186765	0.46548	0.676329
0	C	0.506987	0.748586	0.337871
0	C	0.230605	0.794473	0.00528085
0	C	0.765715	0.535825	0.170306
0	C	0.450726	0.256144	0.838356
0	C	0.728254	0.209711	0.510565
0	C	0.18375	0.518325	0.728407
0	C	0.455466	0.697464	0.392676
0	C	0.279397	0.785397	0.0566912
0	C	0.76469	0.481977	0.225835
0	C	0.502791	0.306362	0.893668
0	C	0.676605	0.213801	0.561723
0	H	0.138884	0.510922	0.767374
0	H	0.462596	0.658459	0.431162
0	H	0.318623	0.826545	0.0984744
0	H	0.808133	0.487058	0.26715
0	H	0.496552	0.345664	0.933053
0	H	0.638839	0.1704	0.601435
0	C	0.237293	0.579527	0.729106
0	C	0.39594	0.696477	0.397005
0	C	0.277386	0.72433	0.054081
0	C	0.708864	0.422613	0.227124
0	C	0.561728	0.306049	0.897148
0	C	0.673757	0.27252	0.561087
0	H	0.234945	0.620431	0.769588
0	H	0.356149	0.656997	0.439834
0	H	0.314822	0.717157	0.0952096
0	H	0.708022	0.380996	0.270649
0	H	0.601975	0.34478	0.94046
0	H	0.633821	0.275647	0.601157
0	C	0.29394	0.588526	0.677162
0	C	0.387294	0.746036	0.345737
0	C	0.22743	0.672374	0.999089
0	C	0.654105	0.416474	0.171949
0	C	0.569272	0.256113	0.84472
0	C	0.722021	0.327303	0.508814
0	H	0.335469	0.636585	0.67622
0	H	0.340299	0.745032	0.348303
0	H	0.226209	0.624442	0.996516
0	H	0.610235	0.3697	0.17206
0	H	0.615575	0.256286	0.846286
0	H	0.719302	0.373063	0.506952
0	C	0.297235	0.535792	0.627214
0	C	0.438522	0.796999	0.292117
0	C	0.178697	0.681331	0.949096
0	C	0.655037	0.47005	0.117464
0	C	0.51744	0.206016	0.790691
0	C	0.774014	0.323574	0.460485
0	H	0.341596	0.542462	0.587863
0	H	0.431881	0.835764	0.252191
0	H	0.139183	0.640843	0.906964
0	H	0.612385	0.465469	0.0741806
0	H	0.523162	0.166722	0.750796
0	H	0.812171	0.366367	0.420819
0	C	0.243904	0.474063	0.627203
0	C	0.498697	0.798879	0.288969
0	C	0.179799	0.74218	0.952688
0	C	0.710516	0.530044	0.117378
0	C	0.457951	0.205655	0.787727
0	C	0.777759	0.265046	0.462394
0	H	0.247062	0.432865	0.589483
0	H	0.538998	0.839599	0.248476
0	H	0.141076	0.748622	0.914964
0	H	0.710428	0.572022	0.075803
0	H	0.417301	0.165862	0.745882
0	H	0.819136	0.262737	0.426559
0	C	0.0831553	0.27801	0.625606
0	C	0.689887	0.812155	0.275504
0	C	0.170092	0.92307	0.959412
0	C	0.875225	0.721412	0.115366
0	C	0.266667	0.190906	0.791391
0	C	0.792714	0.0844388	0.449424
0	C	0.0426226	0.21935	0.679113
0	C	0.748439	0.826379	0.326724
0	C	0.157418	0.969968	0.0117299
0	C	0.916133	0.780562	0.167136
0	C	0.209934	0.18011	0.84583
0	C	0.806283	0.037461	0.49929
0	H	0.0417952	0.21665	0.769446
0	H	0.752693	0.830373	0.416811
0	H	0.155034	0.971217	0.101946
0	H	0.91711	0.784274	0.257349
0	H	0.208274	0.180553	0.936192
0	H	0.809234	0.0355129	0.589327
0	C	0.00380085	0.164326	0.616424
0	C	0.801222	0.835871	0.262067
0	C	0.147402	0.0147312	0.94783
0	C	0.955106	0.834764	0.102846
0	C	0.155493	0.168271	0.784019
0	C	0.816389	0.993509	0.433372
0	H	0.971897	0.119074	0.658165
0	H	0.846336	0.845951	0.301965
0	H	0.138226	0.051573	0.988423
0	H	0.987257	0.880444	0.143215
0	H	0.111806	0.16088	0.826355
0	H	0.826187	0.95665	0.472278
0	C	0.00563021	0.16724	0.500405
0	C	0.796295	0.832241	0.146256
0	C	0.149289	0.0125667	0.831899
0	C	0.953094	0.830488	0.986946
0	C	0.156976	0.166084	0.668038
0	C	0.813755	0.996514	0.31761
0	H	0.974903	0.124394	0.451792
0	H	0.83755	0.839362	0.0961452
0	H	0.142014	0.0479664	0.782311
0	H	0.983852	0.872742	0.937073
0	H	0.114449	0.157053	0.620028
0	H	0.821051	0.961716	0.266473
0	C	0.0468212	0.225341	0.447121
0	C	0.738325	0.8191	0.0952044
0	C	0.160878	0.965182	0.77977
0	C	0.911681	0.771847	0.93538
0	C	0.213172	0.175935	0.613859
0	C	0.801351	0.0439667	0.267875
0	H	0.0487	0.227557	0.356764
0	H	0.734606	0.816861	0.00497146
0	H	0.161848	0.963171	0.689472
0	H	0.909674	0.768656	0.845102
0	H	0.214277	0.17385	0.52355
0	H	0.799907	0.0467581	0.177719
0	C	0.0855774	0.280668	0.509314
0	C	0.685081	0.808771	0.15948
0	C	0.171296	0.920482	0.843133
0	C	0.872789	0.717317	0.999175
0	C	0.26801	0.18854	0.675186
0	C	0.79075	0.087816	0.333386
0	H	0.117842	0.325863	0.467671
0	H	0.639805	0.798265	0.119406
0	H	0.180241	0.883495	0.802426
0	H	0.840318	0.671695	0.958878
0	H	0.311844	0.196344	0.632777
0	H	0.781156	0.124817	0.293899
0	C	0.13386	0.38787	0.886904
0	C	0.590022	0.768693	0.544934
0	C	0.214089	0.853259	0.219983
0	C	0.823987	0.61563	0.381056
0	C	0.377545	0.244876	0.0490758
0	C	0.751497	0.147463	0.719372
0	O	0.173875	0.369594	0.910186
0	O	0.613051	0.82663	0.570545
0	O	0.15719	0.816079	0.238352
0	O	0.786996	0.637456	0.405755
0	O	0.363473	0.187841	0.0709597
0	O	0.808681	0.182278	0.739365
0	N	0.121558	0.429121	0.952062
0	N	0.547147	0.719408	0.61069
0	N	0.262307	0.859495	0.290362
0	N	0.832966	0.571861	0.446175
0	N	0.413857	0.296146	0.117195
0	N	0.703884	0.141613	0.791098
0	H	0.089168	0.44466	0.926402
0	H	0.528705	0.671708	0.584434
0	H	0.309477	0.887908	0.268775
0	H	0.864198	0.554788	0.420465
0	H	0.42681	0.343214	0.0930619
0	H	0.656568	0.113286	0.770078
0	C	0.15073	0.450912	0.0644992
0	C	0.538946	0.72871	0.731426
0	C	0.248844	0.825548	0.400292
0	C	0.816851	0.563768	0.56723
0	C	0.439357	0.287563	0.226289
0	C	0.716795	0.159999	0.910942
0	H	0.156946	0.409841	0.103037
0	H	0.56091	0.782564	0.749428
0	H	0.204193	0.825091	0.434992
0	H	0.780925	0.58205	0.584184
0	H	0.400375	0.243443	0.268228
0	H	0.770203	0.187479	0.924005
0	C	0.104334	0.465417	0.133454
0	C	0.573815	0.698515	0.798136
0	C	0.305768	0.864041	0.476933
0	C	0.878451	0.60436	0.632709
0	C	0.456638	0.348704	0.295761
0	C	0.688782	0.0972127	0.979676
0	H	0.099881	0.507722	0.102191
0	H	0.566649	0.651486	0.763475
0	H	0.349261	0.861925	0.450467
0	H	0.920416	0.602463	0.595549
0	H	0.492202	0.393645	0.255066
0	H	0.640418	0.0618777	0.95162
0	H	0.120486	0.476226	0.22003
0	H	0.557323	0.689404	0.8844
0	H	0.295422	0.844506	0.562045
0	H	0.874748	0.587089	0.718412
0	H	0.477459	0.345281	0.375886
0	H	0.684992	0.10705	0.0675175
0	H	0.0557409	0.423967	0.133505
0	H	0.625594	0.730378	0.798434
0	H	0.317577	0.915774	0.481143
0	H	0.889795	0.655801	0.634947
0	H	0.414624	0.35608	0.313404
0	H	0.718348	0.0722824	0.973388
0	C	0.216521	0.51028	0.0534082
0	C	0.467306	0.697093	0.756774
0	C	0.236364	0.755162	0.385175
0	C	0.787476	0.491354	0.596006
0	C	0.496946	0.275233	0.207501
0	C	0.686956	0.204131	0.940345
0	H	0.246875	0.501224	0.994013
0	H	0.442815	0.717075	0.703652
0	H	0.201263	0.730725	0.318965
0	H	0.746512	0.461835	0.542173
0	H	0.48598	0.236256	0.146339
0	H	0.704743	0.246973	0.885776
0	H	0.242018	0.521621	0.133151
0	H	0.459601	0.707143	0.843689
0	H	0.216437	0.726777	0.461193
0	H	0.76951	0.483199	0.682347
0	H	0.510292	0.25923	0.284476
0	H	0.699973	0.222413	0.0261608
0	H	0.213848	0.554083	0.0249731
0	H	0.444004	0.644131	0.746105
0	H	0.279869	0.751383	0.363369
0	H	0.821983	0.472184	0.58935
0	H	0.539328	0.318627	0.177181
0	H	0.634582	0.178667	0.935347
