#******************************************
#
# CIF file created by Zeo++
# Zeo++ is an open source package to
# analyze microporous materials
#
#*******************************************

_cell_length_a		11.9154(0)
_cell_length_b		17.8054(0)
_cell_length_c		9.51941(0)
_cell_angle_alpha		90(0)
_cell_angle_beta		92.8014(0)
_cell_angle_gamma		90(0)

_symmetry_space_group_name_H-M		'P1'
_symmetry_Int_Tables_number		1
_symmetry_cell_setting		Monoclinic

loop_
_symmetry_equiv_pos_as_xyz
'+x,+y,+z'

loop_
_atom_site_label
_atom_site_type_symbol
_atom_site_fract_x
_atom_site_fract_y
_atom_site_fract_z
0	N	0.77737	0.335075	0.430031
0	N	0.224884	0.834536	0.0689115
0	N	0.225179	0.663676	0.568685
0	N	0.77768	0.164204	0.929866
0	N	0.561922	0.17389	0.417494
0	N	0.43993	0.673345	0.0813981
0	N	0.440569	0.824922	0.581227
0	N	0.562681	0.325423	0.917318
0	N	0.519741	0.110628	0.682138
0	N	0.483276	0.61033	0.816347
0	N	0.482766	0.888173	0.316566
0	N	0.519256	0.388419	0.182372
0	C	0.452732	0.0910936	0.565535
0	C	0.549774	0.590773	0.933379
0	C	0.549778	0.907719	0.433177
0	C	0.452785	0.407986	0.0653389
0	N	0.675002	0.252103	0.27702
0	N	0.326634	0.751411	0.222049
0	N	0.327556	0.746649	0.721673
0	N	0.675943	0.247368	0.77666
0	N	0.829528	0.484725	0.512492
0	N	0.173835	0.984308	0.986275
0	N	0.173022	0.514021	0.48625
0	N	0.828657	0.0144699	0.0124295
0	C	0.582087	0.202777	0.289446
0	C	0.419448	0.702022	0.209512
0	C	0.420449	0.795999	0.709214
0	C	0.583087	0.29674	0.789211
0	C	0.858233	0.347963	0.535573
0	C	0.144543	0.847598	0.962845
0	C	0.14433	0.650785	0.463168
0	C	0.857982	0.151167	0.0359237
0	C	0.752797	0.263157	0.394244
0	C	0.249117	0.762607	0.104602
0	C	0.249746	0.735602	0.604473
0	C	0.753436	0.236177	0.894131
0	C	0.42826	0.134826	0.176186
0	C	0.5728	0.633844	0.323129
0	C	0.574296	0.863932	0.822489
0	C	0.429751	0.364913	0.675639
0	H	0.375864	0.118826	0.0836442
0	H	0.62499	0.617667	0.41567
0	H	0.626719	0.879928	0.915032
0	H	0.377569	0.381099	0.583052
0	C	0.916982	0.288143	0.605206
0	C	0.0861284	0.787844	0.892543
0	C	0.0855426	0.710605	0.393512
0	C	0.916436	0.210931	0.106245
0	C	0.294767	0.0193737	0.450418
0	C	0.707386	0.518937	0.0491517
0	C	0.707752	0.979422	0.54826
0	C	0.295152	0.479825	0.949577
0	H	0.228375	0.978019	0.461446
0	H	0.773888	0.477637	0.0383673
0	H	0.774145	0.0207823	0.537259
0	H	0.228626	0.521099	0.960378
0	C	0.883267	0.425385	0.580481
0	C	0.119956	0.925106	0.918016
0	C	0.119286	0.573354	0.418246
0	C	0.882569	0.0736501	0.0807178
0	C	0.315124	0.0497339	0.323267
0	C	0.686351	0.549039	0.176278
0	C	0.687414	0.949017	0.675387
0	C	0.316217	0.449744	0.82243
0	H	0.265293	0.0333076	0.228412
0	H	0.735657	0.532437	0.271452
0	H	0.737279	0.965425	0.770236
0	H	0.266928	0.46636	0.727256
0	C	0.889235	0.213159	0.564712
0	C	0.113471	0.712781	0.933073
0	C	0.113271	0.78558	0.434002
0	C	0.889108	0.285952	0.0657142
0	H	0.932865	0.166598	0.61821
0	H	0.0700741	0.66628	0.879139
0	H	0.0696346	0.832138	0.380518
0	H	0.932479	0.332476	0.119623
0	C	0.405182	0.102866	0.308926
0	C	0.596211	0.602127	0.190237
0	C	0.597362	0.8959	0.689739
0	C	0.406327	0.396647	0.808497
0	C	0.515437	0.184554	0.164686
0	C	0.48563	0.683556	0.334521
0	C	0.487135	0.81421	0.833992
0	C	0.516857	0.315165	0.664207
0	H	0.535242	0.210433	0.0647156
0	H	0.465473	0.709263	0.434528
0	H	0.467323	0.788296	0.933935
0	H	0.536976	0.289427	0.564215
0	C	0.474668	0.123816	0.427977
0	C	0.527171	0.623271	0.0709361
0	C	0.527854	0.874983	0.570719
0	C	0.475357	0.375502	0.92778
0	C	0.363198	0.0388748	0.574357
0	C	0.639575	0.538674	0.92491
0	C	0.63932	0.959932	0.424332
0	C	0.362946	0.460054	0.0738131
0	C	0.807583	0.199887	0.460921
0	C	0.194471	0.699376	0.0375992
0	C	0.194946	0.798847	0.537814
0	C	0.808085	0.299375	0.961132
0	H	0.782843	0.143227	0.429275
0	H	0.21876	0.642691	0.0695873
0	H	0.219674	0.855513	0.569456
0	H	0.783818	0.356066	0.929144
0	C	0.963021	0.437234	0.694453
0	C	0.0406553	0.937167	0.803665
0	C	0.0395505	0.561508	0.304309
0	C	0.96188	0.0615718	0.195056
0	C	0.344999	0.00587274	0.707304
0	C	0.658713	0.50601	0.791911
0	C	0.657532	0.992888	0.291337
0	C	0.343827	0.492762	0.206799
0	H	0.277312	0.965074	0.716394
0	H	0.726765	0.465498	0.783143
0	H	0.725232	0.03368	0.282215
0	H	0.275758	0.533259	0.215569
0	C	0.852468	0.55458	0.557366
0	C	0.151517	0.0542345	0.94131
0	C	0.150075	0.444162	0.441385
0	C	0.850963	0.94453	0.057338
0	H	0.809209	0.600401	0.499804
0	H	0.195104	0.0999111	0.998929
0	H	0.193316	0.398335	0.498954
0	H	0.807363	0.898864	0.999722
0	C	0.413499	0.0249263	0.822749
0	C	0.590726	0.525139	0.676071
0	C	0.58905	0.973817	0.175904
0	C	0.41184	0.473638	0.32264
0	H	0.401537	0.999673	0.925341
0	H	0.603382	0.500112	0.573442
0	H	0.601031	0.999036	0.0732833
0	H	0.399197	0.498689	0.425255
0	C	0.500995	0.0780407	0.805558
0	C	0.502794	0.577968	0.692937
0	C	0.501532	0.920718	0.193117
0	C	0.499727	0.420784	0.305794
0	H	0.558311	0.0940741	0.894906
0	H	0.445803	0.593964	0.603269
0	H	0.444228	0.904674	0.103775
0	H	0.556689	0.404757	0.395481
0	C	0.000146532	0.303272	0.716711
0	C	0.00358781	0.803162	0.78045
0	C	0.00238487	0.695463	0.282002
0	C	0.998974	0.19558	0.218327
0	H	0.0442079	0.255621	0.76585
0	H	0.959818	0.755578	0.730674
0	H	0.958309	0.743107	0.23286
0	H	0.0427536	0.243157	0.268132
0	C	0.0218856	0.374653	0.760171
0	C	0.982052	0.874638	0.737239
0	C	0.980666	0.624084	0.238544
0	C	0.0205017	0.124093	0.261487
0	H	0.0844772	0.386667	0.844723
0	H	0.919892	0.88673	0.652393
0	H	0.918087	0.612067	0.153999
0	H	0.0826746	0.111975	0.346313
0	C	0.984154	0.512118	0.740218
0	C	0.020017	0.0121313	0.758001
0	C	0.0184177	0.48663	0.258519
0	C	0.982501	0.986594	0.240645
0	H	0.0453624	0.522139	0.827205
0	H	0.959127	0.0223176	0.670757
0	H	0.95722	0.47661	0.171526
0	H	0.043403	0.97639	0.327876
0	C	0.928884	0.570886	0.672737
0	C	0.0754563	0.0707716	0.825702
0	C	0.073675	0.427854	0.326013
0	C	0.927047	0.927974	0.172927
0	H	0.943487	0.628848	0.704567
0	H	0.0613174	0.128783	0.793847
0	H	0.0590684	0.369894	0.294194
0	H	0.941174	0.869954	0.204738
0	H	0.657371	0.299374	0.213871
0	H	0.344335	0.798658	0.285216
0	H	0.345224	0.699367	0.784781
0	H	0.658248	0.200129	0.713486
