#******************************************
#
# CIF file created by Zeo++
# Zeo++ is an open source package to
# analyze microporous materials
#
#*******************************************

_cell_length_a		13.3971(0)
_cell_length_b		16.8833(0)
_cell_length_c		8.72265(0)
_cell_angle_alpha		90(0)
_cell_angle_beta		89.2523(0)
_cell_angle_gamma		90(0)

_symmetry_space_group_name_H-M		'P1'
_symmetry_Int_Tables_number		1
_symmetry_cell_setting		Monoclinic

loop_
_symmetry_equiv_pos_as_xyz
'+x,+y,+z'

loop_
_atom_site_label
_atom_site_type_symbol
_atom_site_fract_x
_atom_site_fract_y
_atom_site_fract_z
0	C	0.0161938	0.0360639	0.393254
0	C	0.0149869	0.536377	0.121222
0	C	0.0142178	0.979975	0.621611
0	C	0.0152846	0.480522	0.89282
0	H	0.088251	0.0609875	0.346895
0	H	0.942678	0.560518	0.16854
0	H	0.942087	0.955181	0.667895
0	H	0.0875624	0.456376	0.845473
0	C	0.934815	0.0472701	0.278856
0	C	0.0967676	0.548438	0.234687
0	C	0.0955856	0.968519	0.735978
0	C	0.933452	0.468479	0.779437
0	C	0.833866	0.0363623	0.318142
0	C	0.197615	0.537212	0.194916
0	C	0.196495	0.979939	0.696968
0	C	0.832616	0.479736	0.819307
0	H	0.813142	0.0204087	0.435773
0	H	0.218058	0.520895	0.0774086
0	H	0.21728	0.996306	0.579552
0	H	0.812207	0.496054	0.936817
0	C	0.761039	0.0463431	0.206302
0	C	0.270746	0.547127	0.306361
0	C	0.269284	0.970072	0.808937
0	C	0.759445	0.469898	0.707934
0	C	0.789485	0.068448	0.0545445
0	C	0.242469	0.56929	0.458143
0	C	0.240805	0.947788	0.9606
0	C	0.78767	0.447766	0.556085
0	C	0.889847	0.0802027	0.0166863
0	C	0.142261	0.581697	0.496422
0	C	0.140471	0.93575	0.998322
0	C	0.887826	0.43531	0.5177
0	H	0.911839	0.0974702	0.8996
0	H	0.120328	0.59905	0.613426
0	H	0.118351	0.918739	0.115483
0	H	0.909723	0.417992	0.40066
0	C	0.962064	0.0689292	0.12878
0	C	0.0698232	0.570715	0.38465
0	C	0.0683613	0.946416	0.885858
0	C	0.960325	0.446265	0.629442
0	H	0.0405317	0.076443	0.0972854
0	H	0.991436	0.578587	0.416325
0	H	0.989904	0.938371	0.916962
0	H	0.0386686	0.438318	0.597708
0	C	0.995204	0.0653193	0.55971
0	C	0.0338098	0.565992	0.954441
0	C	0.0352856	0.950771	0.455178
0	C	0.996409	0.450911	0.059615
0	H	0.915587	0.0829911	0.582913
0	H	0.112947	0.584369	0.929159
0	H	0.114905	0.933123	0.432017
0	H	0.91735	0.432574	0.0848314
0	C	0.0620013	0.131378	0.61001
0	C	0.965472	0.631578	0.906626
0	C	0.968436	0.884848	0.404592
0	C	0.0646783	0.385229	0.107396
0	C	0.0986152	0.214566	0.827238
0	C	0.926266	0.71672	0.69387
0	C	0.931416	0.802199	0.18701
0	C	0.10395	0.30014	0.320241
0	H	0.17801	0.199583	0.829614
0	H	0.846996	0.701171	0.694029
0	H	0.851975	0.817109	0.186104
0	H	0.183131	0.315945	0.320929
0	H	0.0661949	0.219352	0.943016
0	H	0.956799	0.722497	0.577007
0	H	0.963106	0.797915	0.0707152
0	H	0.0729854	0.294071	0.436786
0	H	0.0858334	0.268721	0.761523
0	H	0.939565	0.770591	0.760172
0	H	0.944707	0.747758	0.251598
0	H	0.0911885	0.246354	0.253442
0	C	0.624332	0.0147909	0.378666
0	C	0.407429	0.513759	0.134913
0	C	0.406098	0.00194769	0.636807
0	C	0.622781	0.503092	0.879554
0	H	0.665476	0.964488	0.424658
0	H	0.36719	0.462324	0.0918183
0	H	0.36493	0.0521155	0.590431
0	H	0.663124	0.554374	0.923056
0	H	0.546146	0.997989	0.356446
0	H	0.485891	0.498121	0.157816
0	H	0.484184	0.0189736	0.659347
0	H	0.544306	0.518945	0.856681
0	H	0.628758	0.0666566	0.454215
0	H	0.402284	0.564695	0.0570834
0	H	0.401959	0.950002	0.561442
0	H	0.62778	0.451993	0.956989
0	C	0.673972	0.931824	0.870191
0	C	0.354207	0.430655	0.644093
0	C	0.356037	0.0846362	0.144463
0	C	0.675924	0.586515	0.370475
0	C	0.574574	0.916806	0.91469
0	C	0.453468	0.414537	0.600369
0	C	0.455513	0.10007	0.100995
0	C	0.576648	0.602482	0.414485
0	H	0.516928	0.962681	0.902677
0	H	0.511698	0.459984	0.611647
0	H	0.513366	0.0543838	0.113462
0	H	0.518431	0.557031	0.403025
0	C	0.547044	0.843131	0.972566
0	C	0.479964	0.340292	0.544153
0	C	0.482848	0.173904	0.0436697
0	C	0.550154	0.676656	0.47107
0	H	0.469205	0.832908	0.00715654
0	H	0.557592	0.329125	0.510109
0	H	0.560702	0.184435	0.00962451
0	H	0.472523	0.687769	0.505373
0	C	0.618624	0.782641	0.986924
0	C	0.407502	0.280439	0.530406
0	C	0.410916	0.234098	0.0287873
0	C	0.622562	0.736571	0.484901
0	C	0.718406	0.797677	0.942922
0	C	0.307961	0.2966	0.57392
0	C	0.311032	0.218595	0.0714504
0	C	0.722083	0.720545	0.44106
0	H	0.774703	0.750878	0.953822
0	H	0.250973	0.250263	0.564159
0	H	0.254544	0.265226	0.0601221
0	H	0.779046	0.766909	0.450832
0	C	0.745495	0.871582	0.885545
0	C	0.281829	0.370982	0.629907
0	C	0.284136	0.144516	0.12819
0	C	0.74823	0.64622	0.384779
0	H	0.82325	0.882615	0.851204
0	H	0.204268	0.382764	0.664468
0	H	0.206271	0.133142	0.161434
0	H	0.825747	0.634494	0.350007
0	C	0.588048	0.703629	0.0464245
0	C	0.437062	0.200891	0.472327
0	C	0.441188	0.313383	0.970322
0	C	0.59294	0.816033	0.543309
0	H	0.541146	0.708402	0.150882
0	H	0.480384	0.204789	0.364321
0	H	0.487395	0.309097	0.865051
0	H	0.549556	0.811976	0.651549
0	H	0.651615	0.66559	0.075139
0	H	0.373029	0.162052	0.450392
0	H	0.377448	0.351621	0.943315
0	H	0.656897	0.854931	0.565294
0	H	0.542732	0.671563	0.961463
0	H	0.485483	0.170205	0.555119
0	H	0.487104	0.345019	0.0552819
0	H	0.544363	0.846771	0.460689
0	O	0.714504	0.0836195	0.951109
0	O	0.31763	0.583127	0.561949
0	O	0.315787	0.932706	0.0640803
0	O	0.712442	0.434035	0.452333
0	O	0.660399	0.0354712	0.226189
0	O	0.371347	0.536031	0.286528
0	O	0.369878	0.981359	0.78927
0	O	0.658853	0.481062	0.727804
0	O	0.625178	0.0564181	0.711722
0	O	0.403493	0.5548	0.803313
0	O	0.405282	0.96025	0.303194
0	O	0.626725	0.462453	0.210841
0	O	0.803916	0.0192436	0.723759
0	O	0.224234	0.519687	0.786286
0	O	0.226452	0.997094	0.29133
0	O	0.805957	0.497559	0.228217
0	O	0.121806	0.169338	0.533941
0	O	0.904828	0.667945	0.984201
0	O	0.908346	0.846938	0.480253
0	O	0.125104	0.348734	0.0296825
0	O	0.0432369	0.14907	0.761035
0	O	0.983664	0.65133	0.756412
0	O	0.987218	0.867377	0.25348
0	O	0.0465395	0.365511	0.25763
0	S	0.706181	0.0215012	0.7974
0	S	0.322885	0.520751	0.715605
0	S	0.32412	0.994951	0.217539
0	S	0.707294	0.49647	0.298733
