#******************************************
#
# CIF file created by Zeo++
# Zeo++ is an open source package to
# analyze microporous materials
#
#*******************************************

_cell_length_a		13.6138(0)
_cell_length_b		20.4946(0)
_cell_length_c		25.8359(0)
_cell_angle_alpha		90(0)
_cell_angle_beta		109.519(0)
_cell_angle_gamma		90(0)

_symmetry_space_group_name_H-M		'P1'
_symmetry_Int_Tables_number		1
_symmetry_cell_setting		Monoclinic

loop_
_symmetry_equiv_pos_as_xyz
'+x,+y,+z'

loop_
_atom_site_label
_atom_site_type_symbol
_atom_site_fract_x
_atom_site_fract_y
_atom_site_fract_z
0	C	0.35646	0.325527	0.283168
0	C	0.213275	0.830541	0.201601
0	C	0.748367	0.693879	0.691204
0	C	0.891396	0.187649	0.772357
0	C	0.324707	0.322129	0.225523
0	C	0.241918	0.828085	0.259184
0	C	0.780086	0.697207	0.748845
0	C	0.862784	0.190208	0.714801
0	C	0.256926	0.369904	0.193642
0	C	0.308676	0.876273	0.291151
0	C	0.847716	0.649307	0.780712
0	C	0.795931	0.142147	0.682753
0	H	0.233479	0.367693	0.148841
0	H	0.330507	0.874478	0.335902
0	H	0.871123	0.651508	0.825509
0	H	0.774092	0.144009	0.638002
0	C	0.219892	0.420241	0.21834
0	C	0.346605	0.926244	0.266581
0	C	0.884484	0.598907	0.755976
0	C	0.757845	0.0921328	0.707259
0	H	0.16804	0.457664	0.193434
0	H	0.397822	0.963911	0.291718
0	H	0.936094	0.561343	0.780836
0	H	0.706569	0.0545602	0.682031
0	C	0.247598	0.421965	0.275323
0	C	0.321415	0.927416	0.209716
0	C	0.856814	0.597252	0.699004
0	C	0.782948	0.090863	0.764091
0	H	0.216619	0.460138	0.29485
0	H	0.353094	0.965629	0.190356
0	H	0.887575	0.559023	0.679443
0	H	0.751151	0.0526624	0.78339
0	C	0.314488	0.374277	0.307898
0	C	0.256334	0.878984	0.177117
0	C	0.79012	0.64506	0.666444
0	C	0.848135	0.139202	0.796792
0	C	0.329977	0.378318	0.36753
0	C	0.244585	0.882553	0.117889
0	C	0.7746	0.640914	0.6068
0	C	0.859833	0.135617	0.85598
0	C	0.259579	0.345537	0.388158
0	C	0.318352	0.850602	0.0992937
0	C	0.844985	0.673624	0.586133
0	C	0.786141	0.167648	0.874628
0	C	0.263258	0.357486	0.442137
0	C	0.32082	0.863825	0.0465011
0	C	0.841222	0.661556	0.532121
0	C	0.783707	0.154466	0.927396
0	H	0.208229	0.332703	0.45786
0	H	0.378835	0.839758	0.0326033
0	H	0.896166	0.68636	0.516344
0	H	0.725764	0.178563	0.941329
0	C	0.334702	0.401833	0.475826
0	C	0.251185	0.908069	0.0117891
0	C	0.769909	0.617108	0.498576
0	C	0.853263	0.110147	0.962113
0	C	0.405873	0.432885	0.455501
0	C	0.17503	0.93722	0.0296679
0	C	0.698825	0.586089	0.518953
0	C	0.929319	0.0808894	0.944177
0	H	0.462208	0.467489	0.481175
0	H	0.118637	0.970569	0.00283572
0	H	0.642556	0.551381	0.493373
0	H	0.985606	0.0474736	0.970995
0	C	0.404876	0.420972	0.40186
0	C	0.170469	0.924427	0.0821626
0	C	0.699782	0.598185	0.572589
0	C	0.933823	0.0936317	0.891701
0	C	0.334047	0.416843	0.533333
0	C	0.257647	0.925268	0.955883
0	C	0.770566	0.601915	0.441074
0	C	0.846777	0.0929055	0.0180106
0	H	0.391345	0.457011	0.551392
0	H	0.194954	0.96185	0.936043
0	H	0.713354	0.56165	0.423141
0	H	0.909511	0.0563486	0.0378461
0	C	0.225983	0.440932	0.531201
0	C	0.362675	0.957156	0.961342
0	C	0.878623	0.5779	0.443244
0	C	0.74181	0.0609319	0.0125325
0	H	0.196759	0.478484	0.499456
0	H	0.383709	0.993962	0.994498
0	H	0.907793	0.540251	0.474919
0	H	0.721075	0.0239847	0.979466
0	H	0.228209	0.4621	0.570581
0	H	0.359862	0.982188	0.923198
0	H	0.876504	0.556824	0.403844
0	H	0.74458	0.0360046	0.0507071
0	H	0.168384	0.401493	0.521526
0	H	0.42588	0.921329	0.971016
0	H	0.936259	0.617346	0.453024
0	H	0.678434	0.0966329	0.00263802
0	C	0.368153	0.356752	0.570424
0	C	0.237504	0.864939	0.918638
0	C	0.736187	0.661853	0.403829
0	C	0.866729	0.153215	0.0552812
0	H	0.320252	0.313823	0.553153
0	H	0.293271	0.825697	0.936612
0	H	0.784109	0.704845	0.4209
0	H	0.810898	0.192411	0.037266
0	H	0.362065	0.365568	0.611382
0	H	0.24331	0.876874	0.878377
0	H	0.741973	0.652852	0.362838
0	H	0.860735	0.141209	0.0954875
0	H	0.449276	0.343895	0.576075
0	H	0.159081	0.845281	0.91164
0	H	0.655122	0.674724	0.398318
0	H	0.945144	0.172944	0.0623697
0	C	0.482178	0.456012	0.380684
0	C	0.0870413	0.956671	0.100388
0	C	0.622468	0.563227	0.593805
0	C	0.0170018	0.0612208	0.87338
0	H	0.474529	0.436825	0.338794
0	H	0.0938524	0.938849	0.142482
0	H	0.630083	0.582545	0.635655
0	H	0.0100752	0.0789566	0.83125
0	C	0.457346	0.529249	0.375348
0	C	0.103272	0.0308937	0.104144
0	C	0.647337	0.490003	0.599284
0	C	0.000597062	0.987008	0.869728
0	H	0.376707	0.537964	0.348811
0	H	0.182685	0.0432758	0.130802
0	H	0.72791	0.481319	0.625933
0	H	0.921046	0.974643	0.843207
0	H	0.508854	0.555153	0.357556
0	H	0.0487482	0.0543243	0.1214
0	H	0.595685	0.464138	0.617015
0	H	0.054875	0.963459	0.852371
0	H	0.466752	0.551706	0.415222
0	H	0.091601	0.0527905	0.0638188
0	H	0.638137	0.467441	0.559456
0	H	0.0124828	0.965173	0.910089
0	C	0.594733	0.443493	0.417754
0	C	0.978015	0.93757	0.0623474
0	C	0.509937	0.575659	0.556688
0	C	0.12617	0.080254	0.911308
0	H	0.615176	0.470575	0.456534
0	H	0.96055	0.957047	0.0208069
0	H	0.489634	0.548636	0.517884
0	H	0.143922	0.0605997	0.952811
0	H	0.649697	0.458012	0.396695
0	H	0.917965	0.955261	0.0786409
0	H	0.454913	0.561033	0.577676
0	H	0.18602	0.0626648	0.894801
0	H	0.607992	0.391426	0.427686
0	H	0.96993	0.884212	0.0586974
0	H	0.496541	0.627715	0.546791
0	H	0.134301	0.133597	0.915102
0	C	0.175226	0.301083	0.351637
0	C	0.399401	0.804974	0.136567
0	C	0.929486	0.718026	0.622599
0	C	0.705098	0.213263	0.8373
0	H	0.195625	0.286314	0.314669
0	H	0.37707	0.791555	0.173285
0	H	0.909145	0.732906	0.659561
0	H	0.727485	0.226638	0.800585
0	C	0.163119	0.238157	0.381069
0	C	0.407316	0.741275	0.107063
0	C	0.94183	0.780844	0.593104
0	C	0.697062	0.276989	0.866738
0	H	0.234821	0.209019	0.392844
0	H	0.33383	0.713981	0.095799
0	H	0.870365	0.810208	0.581489
0	H	0.770601	0.304241	0.878136
0	H	0.099461	0.207964	0.354154
0	H	0.469059	0.709719	0.133706
0	H	0.00589774	0.810868	0.619923
0	H	0.635474	0.308551	0.839985
0	H	0.144795	0.24819	0.418482
0	H	0.42554	0.74985	0.0694067
0	H	0.959725	0.770685	0.555586
0	H	0.678505	0.268449	0.904294
0	C	0.072444	0.33922	0.331452
0	C	0.504121	0.840869	0.15747
0	C	0.0321014	0.679708	0.642795
0	C	0.600405	0.177351	0.816393
0	H	0.0461629	0.354487	0.365494
0	H	0.532241	0.855578	0.124039
0	H	0.058388	0.664451	0.608751
0	H	0.572127	0.162794	0.849797
0	H	0.00982485	0.309876	0.303142
0	H	0.564692	0.810222	0.185774
0	H	0.0948105	0.708908	0.671191
0	H	0.53991	0.207917	0.787959
0	H	0.0799736	0.383426	0.309177
0	H	0.498396	0.885151	0.180121
0	H	0.0243162	0.635465	0.664965
0	H	0.60623	0.132981	0.793879
0	C	0.35505	0.26856	0.195159
0	C	0.20944	0.775662	0.289752
0	C	0.749814	0.750712	0.779269
0	C	0.895348	0.242667	0.684281
0	C	0.305522	0.207233	0.190546
0	C	0.257197	0.713646	0.295206
0	C	0.799577	0.811999	0.784056
0	C	0.847743	0.304692	0.678905
0	C	0.332983	0.157011	0.161201
0	C	0.227325	0.664481	0.324599
0	C	0.772168	0.862167	0.813432
0	C	0.877588	0.35385	0.649499
0	H	0.294346	0.10974	0.15756
0	H	0.264283	0.616724	0.328728
0	H	0.811074	0.909384	0.817293
0	H	0.840728	0.401635	0.645432
0	C	0.408118	0.166727	0.13595
0	C	0.151649	0.675808	0.34919
0	C	0.696596	0.852512	0.838422
0	C	0.953041	0.342455	0.624773
0	C	0.453896	0.228438	0.13882
0	C	0.10804	0.738244	0.345695
0	C	0.650629	0.790796	0.835415
0	C	0.996523	0.280015	0.628196
0	H	0.510882	0.237115	0.118399
0	H	0.050829	0.748293	0.365665
0	H	0.593373	0.782203	0.855683
0	H	0.0535373	0.26989	0.608119
0	C	0.426898	0.279856	0.1673
0	C	0.137647	0.788688	0.317344
0	C	0.677713	0.739407	0.806987
0	C	0.966968	0.229569	0.656594
0	C	0.469396	0.348187	0.165167
0	C	0.0980471	0.857678	0.32009
0	C	0.635049	0.671104	0.808983
0	C	0.00640994	0.16056	0.653787
0	H	0.46815	0.375769	0.202501
0	H	0.103206	0.885851	0.283849
0	H	0.636192	0.643625	0.771598
0	H	0.00112134	0.132342	0.689982
0	C	0.398088	0.383518	0.113836
0	C	0.168713	0.890629	0.37291
0	C	0.706224	0.635572	0.860234
0	C	0.935708	0.127724	0.600924
0	H	0.397547	0.359059	0.0760444
0	H	0.163809	0.866223	0.409649
0	H	0.706781	0.659908	0.898083
0	H	0.9409	0.152029	0.5642
0	H	0.423565	0.433962	0.112268
0	H	0.146833	0.941879	0.374766
0	H	0.680587	0.585148	0.861664
0	H	0.957237	0.0763837	0.599089
0	H	0.317048	0.385306	0.1133
0	H	0.250746	0.889923	0.375144
0	H	0.787276	0.633729	0.860797
0	H	0.853628	0.128659	0.598608
0	C	0.581588	0.349053	0.164913
0	C	0.984805	0.860204	0.318376
0	C	0.522876	0.670308	0.809267
0	C	0.119686	0.157945	0.655576
0	H	0.633119	0.317789	0.197082
0	H	0.934463	0.82859	0.285987
0	H	0.471267	0.701388	0.776973
0	H	0.169981	0.189656	0.687904
0	H	0.61461	0.398326	0.17261
0	H	0.953138	0.909741	0.30971
0	H	0.489937	0.620997	0.801779
0	H	0.151305	0.108412	0.664376
0	H	0.587467	0.332478	0.125788
0	H	0.975538	0.844748	0.357107
0	H	0.516984	0.687127	0.848325
0	H	0.129088	0.173221	0.616832
0	C	0.438048	0.111547	0.104817
0	C	0.119466	0.622012	0.380746
0	C	0.666199	0.907729	0.869326
0	C	0.984932	0.396204	0.593041
0	H	0.501935	0.128797	0.0898014
0	H	0.054235	0.640237	0.394245
0	H	0.602448	0.890372	0.88443
0	H	0.0503031	0.378017	0.579612
0	C	0.3451	0.0916255	0.0545384
0	C	0.210887	0.603941	0.43241
0	C	0.758907	0.928063	0.919504
0	C	0.893369	0.413918	0.541329
0	H	0.281883	0.0699785	0.0663371
0	H	0.274456	0.580559	0.422101
0	H	0.821923	0.949942	0.907688
0	H	0.829603	0.437173	0.551565
0	H	0.368021	0.0545656	0.029713
0	H	0.186564	0.569636	0.458353
0	H	0.735518	0.965118	0.944202
0	H	0.917443	0.448169	0.515264
0	H	0.312791	0.133542	0.027992
0	H	0.243231	0.647259	0.457151
0	H	0.791646	0.886345	0.946255
0	H	0.861367	0.37046	0.516755
0	C	0.479512	0.0527132	0.142657
0	C	0.0794876	0.562046	0.344204
0	C	0.624241	0.966219	0.831215
0	C	0.0245761	0.45639	0.629378
0	H	0.545351	0.0668584	0.178899
0	H	0.016486	0.575458	0.30646
0	H	0.558633	0.951702	0.79501
0	H	0.0876702	0.443222	0.667158
0	H	0.505614	0.0138369	0.121161
0	H	0.0500244	0.524704	0.365676
0	H	0.597635	0.00512163	0.852501
0	H	0.0538308	0.493672	0.607757
0	H	0.419461	0.0313818	0.157259
0	H	0.14117	0.539242	0.331851
0	H	0.684142	0.987689	0.81657
0	H	0.962741	0.47914	0.641647
0	C	0.217481	0.19561	0.2134
0	C	0.345586	0.699974	0.273064
0	C	0.887611	0.823555	0.761195
0	C	0.759323	0.3184	0.701037
0	H	0.21824	0.23447	0.244117
0	H	0.34839	0.738999	0.243146
0	H	0.886571	0.784808	0.730347
0	H	0.756509	0.27938	0.730961
0	C	0.227601	0.129842	0.242988
0	C	0.331431	0.634601	0.24262
0	C	0.877724	0.889416	0.731766
0	C	0.773403	0.383805	0.731437
0	H	0.219497	0.0882377	0.215269
0	H	0.339176	0.59268	0.269985
0	H	0.88632	0.930949	0.759614
0	H	0.76605	0.425675	0.704054
0	H	0.167942	0.124892	0.26256
0	H	0.389319	0.629029	0.221955
0	H	0.937145	0.894279	0.712026
0	H	0.715196	0.389502	0.751881
0	H	0.30386	0.125459	0.275464
0	H	0.254123	0.631467	0.210875
0	H	0.801352	0.894038	0.699426
0	H	0.850529	0.386862	0.763346
0	C	0.113297	0.201111	0.165996
0	C	0.449564	0.702371	0.320871
0	C	0.99184	0.817713	0.808521
0	C	0.655363	0.315975	0.653211
0	H	0.103227	0.250364	0.148227
0	H	0.462648	0.750986	0.339826
0	H	0.00207558	0.768193	0.825789
0	H	0.642328	0.267348	0.634269
0	H	0.0474513	0.191339	0.180226
0	H	0.514974	0.691447	0.306553
0	H	0.0576364	0.827994	0.794368
0	H	0.589928	0.326877	0.667496
0	H	0.108798	0.166542	0.132936
0	H	0.451678	0.667116	0.35312
0	H	0.99628	0.851741	0.841939
0	H	0.653228	0.351209	0.620946
0	C	0.695964	0.232762	0.347923
0	C	0.876131	0.737561	0.134047
0	C	0.408593	0.786182	0.626335
0	C	0.228382	0.281029	0.840044
0	C	0.790066	0.253596	0.341988
0	C	0.781818	0.759644	0.138895
0	C	0.314536	0.765346	0.63227
0	C	0.322746	0.259012	0.835201
0	C	0.884978	0.243751	0.384776
0	C	0.687903	0.751677	0.0950906
0	C	0.21961	0.775082	0.589468
0	C	0.41668	0.267127	0.87899
0	H	0.957287	0.26078	0.379966
0	H	0.615405	0.769335	0.0992839
0	H	0.147313	0.758067	0.594273
0	H	0.489188	0.249507	0.874791
0	C	0.887204	0.212124	0.432899
0	C	0.68722	0.720854	0.0468751
0	C	0.217374	0.806594	0.541262
0	C	0.41733	0.298014	0.927158
0	H	0.960835	0.204804	0.466039
0	H	0.614616	0.715156	0.0128664
0	H	0.143718	0.8138	0.508095
0	H	0.489962	0.303851	0.961142
0	C	0.794492	0.189088	0.437852
0	C	0.779836	0.69642	0.0428262
0	C	0.310036	0.829609	0.536314
0	C	0.32464	0.322338	0.931219
0	H	0.795879	0.163292	0.475151
0	H	0.779531	0.67094	0.00556571
0	H	0.308673	0.855301	0.498968
0	H	0.324865	0.34785	0.968437
0	C	0.698712	0.198625	0.395546
0	C	0.874456	0.703884	0.08638
0	C	0.405848	0.820202	0.578645
0	C	0.229993	0.314741	0.88768
0	C	0.606312	0.166769	0.402832
0	C	0.96657	0.670549	0.0800211
0	C	0.49824	0.852024	0.571307
0	C	0.13785	0.348003	0.894034
0	C	0.570442	0.107625	0.374711
0	C	0.998155	0.61013	0.106854
0	C	0.534122	0.911167	0.599403
0	C	0.106127	0.408414	0.867226
0	C	0.48676	0.0749444	0.382967
0	C	0.0826932	0.576767	0.0999679
0	C	0.617843	0.943832	0.591086
0	C	0.0216204	0.441732	0.874108
0	H	0.459441	0.0292161	0.361519
0	H	0.106942	0.530181	0.1207
0	H	0.645219	0.989556	0.612552
0	H	0.997292	0.488293	0.853415
0	C	0.438904	0.0994306	0.419217
0	C	0.135812	0.601795	0.0663775
0	C	0.665486	0.919318	0.554779
0	C	0.968449	0.41657	0.907702
0	C	0.476533	0.157088	0.448087
0	C	0.101662	0.660403	0.0382857
0	C	0.627855	0.861684	0.525945
0	C	0.00267773	0.357951	0.935707
0	H	0.441037	0.176138	0.477015
0	H	0.140685	0.679838	0.011197
0	H	0.663211	0.842595	0.496965
0	H	0.963546	0.338425	0.962744
0	C	0.561345	0.190409	0.441171
0	C	0.0159784	0.694338	0.0436706
0	C	0.543045	0.828349	0.532942
0	C	0.0883466	0.32408	0.930347
0	C	0.609894	0.247957	0.4782
0	C	0.972855	0.753	0.0069011
0	C	0.494537	0.770739	0.495997
0	C	0.131576	0.265358	0.967047
0	H	0.654113	0.278549	0.457398
0	H	0.926857	0.783939	0.0263668
0	H	0.450318	0.740232	0.516851
0	H	0.177608	0.234523	0.947533
0	C	0.687385	0.221235	0.532042
0	C	0.898651	0.728534	0.951356
0	C	0.417061	0.797316	0.442098
0	C	0.205736	0.289785	0.0226237
0	H	0.648361	0.191284	0.554396
0	H	0.938954	0.69679	0.930939
0	H	0.456017	0.827364	0.419769
0	H	0.165328	0.321347	0.0431103
0	H	0.72805	0.26091	0.559349
0	H	0.865491	0.769369	0.923517
0	H	0.376694	0.757561	0.414799
0	H	0.239053	0.248903	0.0503519
0	H	0.747458	0.1908	0.524219
0	H	0.833039	0.700985	0.956102
0	H	0.356743	0.827609	0.44983
0	H	0.271194	0.317503	0.0178921
0	C	0.530081	0.292436	0.490447
0	C	0.0574273	0.795982	0.99771
0	C	0.574378	0.726194	0.483852
0	C	0.0470412	0.222284	0.976157
0	H	0.466372	0.305855	0.45294
0	H	0.118052	0.808648	0.0366494
0	H	0.638253	0.713042	0.521376
0	H	0.98644	0.209701	0.937201
0	H	0.56621	0.338231	0.509429
0	H	0.024743	0.842053	0.977541
0	H	0.53836	0.680271	0.465125
0	H	0.079767	0.176169	0.996205
0	H	0.494621	0.269709	0.518232
0	H	0.0960633	0.772057	0.971967
0	H	0.609606	0.748736	0.455886
0	H	0.00839331	0.24608	0.00194905
0	C	0.349715	0.0622576	0.42847
0	C	0.227625	0.565091	0.0593653
0	C	0.754643	0.956501	0.545459
0	C	0.876541	0.4532	0.91468
0	H	0.322354	0.0895942	0.458653
0	H	0.261876	0.594893	0.0331571
0	H	0.782036	0.929093	0.515323
0	H	0.84241	0.423366	0.940941
0	C	0.25764	0.0562899	0.374678
0	C	0.312903	0.554821	0.115218
0	C	0.846695	0.962669	0.599242
0	C	0.791179	0.463224	0.858824
0	H	0.230408	0.104422	0.35722
0	H	0.337018	0.601323	0.13678
0	H	0.874313	0.914607	0.616689
0	H	0.767485	0.416669	0.837267
0	H	0.191858	0.0306477	0.381073
0	H	0.381914	0.531533	0.110505
0	H	0.912245	0.988584	0.592848
0	H	0.721963	0.486208	0.863539
0	H	0.278709	0.0289408	0.343419
0	H	0.286593	0.52362	0.14254
0	H	0.825459	0.989862	0.630515
0	H	0.817199	0.494581	0.831493
0	C	0.387003	0.994669	0.452892
0	C	0.191586	0.499701	0.0303986
0	C	0.717149	0.0239925	0.520884
0	C	0.912278	0.518642	0.943534
0	H	0.409179	0.963686	0.424074
0	H	0.156963	0.467992	0.053707
0	H	0.694722	0.055006	0.549603
0	H	0.94651	0.550448	0.920097
0	H	0.325938	0.96913	0.463717
0	H	0.256529	0.472935	0.0244655
0	H	0.77816	0.0495666	0.510038
0	H	0.847229	0.545246	0.949529
0	H	0.455565	0.998149	0.490278
0	H	0.132256	0.506693	0.989853
0	H	0.648687	0.0203375	0.483464
0	H	0.971819	0.511825	0.984032
0	C	0.627655	0.0756631	0.339885
0	C	0.936718	0.577333	0.139224
0	C	0.476888	0.943191	0.634193
0	C	0.167458	0.441219	0.834811
0	H	0.671227	0.113124	0.324537
0	H	0.886519	0.61384	0.150901
0	H	0.433489	0.905731	0.649645
0	H	0.21775	0.404764	0.82315
0	C	0.708571	0.0287482	0.377181
0	C	0.863902	0.526787	0.101471
0	C	0.395768	0.989903	0.596778
0	C	0.240171	0.491874	0.872494
0	H	0.771816	0.0557356	0.407146
0	H	0.8001	0.550506	0.069277
0	H	0.332723	0.962753	0.566829
0	H	0.30422	0.468253	0.90462
0	H	0.742938	0.997417	0.353067
0	H	0.829659	0.494397	0.124975
0	H	0.361149	0.0211905	0.620805
0	H	0.274094	0.524396	0.848911
0	H	0.674027	0.99629	0.400153
0	H	0.905274	0.495476	0.0811652
0	H	0.430182	0.0223979	0.573769
0	H	0.198775	0.523073	0.89287
0	C	0.553784	0.0415144	0.28904
0	C	0.00754161	0.546323	0.192725
0	C	0.550664	0.977557	0.684942
0	C	0.0964989	0.472089	0.781277
0	H	0.51054	0.00124271	0.299682
0	H	0.0527519	0.505112	0.185343
0	H	0.593969	0.0176999	0.674165
0	H	0.051066	0.513219	0.788608
0	H	0.596513	0.0211399	0.263586
0	H	0.96172	0.527936	0.217401
0	H	0.507859	0.99815	0.710268
0	H	0.142211	0.490572	0.756563
0	H	0.496106	0.07621	0.263621
0	H	0.0628299	0.582466	0.217801
0	H	0.608271	0.942938	0.710517
0	H	0.0413752	0.435838	0.756231
0	C	0.797924	0.284236	0.291399
0	C	0.772308	0.788908	0.189572
0	C	0.30664	0.734684	0.682849
0	C	0.33222	0.229703	0.784526
0	C	0.797082	0.352726	0.28627
0	C	0.772031	0.857216	0.195887
0	C	0.307689	0.666191	0.687988
0	C	0.332543	0.161414	0.77828
0	C	0.8176	0.381366	0.241663
0	C	0.749636	0.883899	0.240671
0	C	0.287128	0.637487	0.732563
0	C	0.354803	0.134697	0.733443
0	H	0.818163	0.434303	0.238636
0	H	0.747454	0.936606	0.244617
0	H	0.286665	0.584545	0.735596
0	H	0.356982	0.0819757	0.729532
0	C	0.838001	0.342637	0.20174
0	C	0.729697	0.8437	0.279889
0	C	0.266464	0.67616	0.772437
0	C	0.374559	0.174896	0.694168
0	C	0.837161	0.27466	0.206684
0	C	0.731663	0.775923	0.273619
0	C	0.267061	0.744142	0.767486
0	C	0.372578	0.242638	0.700383
0	H	0.852915	0.244362	0.175691
0	H	0.715749	0.744452	0.30384
0	H	0.251089	0.774371	0.79845
0	H	0.388319	0.274098	0.670122
0	C	0.817724	0.244992	0.251124
0	C	0.752172	0.747999	0.228823
0	C	0.28651	0.773871	0.72306
0	C	0.35216	0.270595	0.745214
0	C	0.778954	0.395591	0.330186
0	C	0.793454	0.902075	0.154029
0	C	0.325816	0.623362	0.644054
0	C	0.31122	0.116578	0.820174
0	H	0.752938	0.364373	0.358921
0	H	0.818702	0.871896	0.124437
0	H	0.352217	0.654565	0.615452
0	H	0.28638	0.146813	0.849883
0	C	0.692992	0.446037	0.305433
0	C	0.882188	0.949831	0.181817
0	C	0.411354	0.572645	0.668766
0	C	0.222181	0.0689967	0.792476
0	H	0.717855	0.484706	0.283373
0	H	0.859285	0.986503	0.206444
0	H	0.386064	0.53399	0.690644
0	H	0.244789	0.0321408	0.767896
0	H	0.669284	0.469018	0.338019
0	H	0.907257	0.975609	0.151106
0	H	0.434996	0.549672	0.636163
0	H	0.197008	0.0434346	0.823258
0	H	0.623353	0.422946	0.27658
0	H	0.950556	0.923882	0.20911
0	H	0.481081	0.595489	0.69775
0	H	0.153948	0.0950305	0.765152
0	C	0.881918	0.428466	0.363581
0	C	0.693582	0.938593	0.12123
0	C	0.222688	0.590804	0.610454
0	C	0.410991	0.0798271	0.852792
0	H	0.943751	0.392002	0.380614
0	H	0.632253	0.904314	0.0985936
0	H	0.16105	0.62742	0.593525
0	H	0.47256	0.11395	0.875451
0	H	0.873047	0.456602	0.397785
0	H	0.708084	0.972157	0.0914021
0	H	0.231474	0.562843	0.576146
0	H	0.396463	0.0462332	0.882584
0	H	0.909506	0.46176	0.338171
0	H	0.662689	0.967564	0.148076
0	H	0.194838	0.557443	0.635698
0	H	0.441582	0.0508726	0.825816
0	C	0.862918	0.373967	0.154405
0	C	0.705109	0.873317	0.327975
0	C	0.241413	0.644759	0.819702
0	C	0.398927	0.145224	0.646028
0	H	0.852841	0.428546	0.156347
0	H	0.717612	0.927842	0.32779
0	H	0.251761	0.590185	0.817791
0	H	0.386523	0.0906893	0.646293
0	C	0.788601	0.350317	0.0987657
0	C	0.777954	0.846894	0.382971
0	C	0.315396	0.668484	0.875404
0	C	0.325784	0.17155	0.59107
0	H	0.805558	0.374325	0.0647595
0	H	0.762556	0.870504	0.417564
0	H	0.298145	0.644513	0.909337
0	H	0.340795	0.147781	0.556431
0	H	0.707393	0.361054	0.0945879
0	H	0.859805	0.855711	0.387342
0	H	0.396677	0.65773	0.879779
0	H	0.243981	0.162855	0.586913
0	H	0.795026	0.297551	0.0935763
0	H	0.768191	0.794156	0.386966
0	H	0.308878	0.721251	0.880526
0	H	0.33564	0.224253	0.586936
0	C	0.976861	0.360733	0.160049
0	C	0.590649	0.861483	0.321929
0	C	0.127326	0.657757	0.813886
0	C	0.513306	0.157096	0.651892
0	H	0.990468	0.309321	0.152633
0	H	0.574472	0.809852	0.326785
0	H	0.113456	0.709065	0.8215
0	H	0.529387	0.208736	0.647033
0	H	0.0289932	0.372366	0.201652
0	H	0.538642	0.876446	0.281209
0	H	0.0754997	0.646326	0.772174
0	H	0.565522	0.142091	0.692555
0	H	0.00102638	0.390095	0.130995
0	H	0.568483	0.889002	0.352671
0	H	0.102994	0.628087	0.842705
0	H	0.535226	0.129613	0.621049
0	C	0.823748	0.171081	0.256195
0	C	0.747256	0.674229	0.222146
0	C	0.280096	0.847759	0.717952
0	C	0.356962	0.344375	0.751868
0	H	0.789575	0.154754	0.287984
0	H	0.782847	0.659497	0.190447
0	H	0.314316	0.86421	0.686212
0	H	0.321721	0.359071	0.783711
0	C	0.761399	0.138359	0.201687
0	C	0.808537	0.639619	0.275851
0	C	0.342074	0.880606	0.772473
0	C	0.295139	0.378928	0.698227
0	H	0.681631	0.157606	0.185833
0	H	0.887493	0.65974	0.293376
0	H	0.421747	0.861259	0.788591
0	H	0.216199	0.358751	0.680927
0	H	0.756075	0.085574	0.206697
0	H	0.816055	0.587431	0.268989
0	H	0.347649	0.933357	0.767351
0	H	0.287626	0.431133	0.705112
0	H	0.797138	0.146444	0.169969
0	H	0.770731	0.644517	0.307371
0	H	0.305795	0.872723	0.803993
0	H	0.332481	0.374054	0.666519
0	C	0.938584	0.149981	0.27508
0	C	0.632804	0.652322	0.201762
0	C	0.165137	0.868596	0.698966
0	C	0.471361	0.366377	0.771979
0	H	0.97554	0.162659	0.244661
0	H	0.5932	0.66517	0.230995
0	H	0.128086	0.855785	0.729312
0	H	0.510557	0.353777	0.742506
0	H	0.946078	0.0972158	0.281661
0	H	0.626703	0.599454	0.195606
0	H	0.157367	0.921353	0.692395
0	H	0.477411	0.419229	0.778316
0	H	0.984085	0.173994	0.313859
0	H	0.589111	0.6756	0.162326
0	H	0.119893	0.844508	0.66017
0	H	0.5155	0.342957	0.81128
0	Se	0.44515	0.262989	0.331354
0	Se	0.127114	0.767189	0.153221
0	Se	0.659685	0.756463	0.643049
0	Se	0.977545	0.250881	0.820866
0	Se	0.572817	0.246019	0.286123
0	Se	0.997911	0.748908	0.196956
0	Se	0.531743	0.773071	0.688161
0	Se	0.106657	0.269556	0.777133
