#******************************************
#
# CIF file created by Zeo++
# Zeo++ is an open source package to
# analyze microporous materials
#
#*******************************************

_cell_length_a		22.1372(0)
_cell_length_b		10.7904(0)
_cell_length_c		12.8719(0)
_cell_angle_alpha		90(0)
_cell_angle_beta		92.7416(0)
_cell_angle_gamma		90(0)

_symmetry_space_group_name_H-M		'P1'
_symmetry_Int_Tables_number		1
_symmetry_cell_setting		Monoclinic

loop_
_symmetry_equiv_pos_as_xyz
'+x,+y,+z'

loop_
_atom_site_label
_atom_site_type_symbol
_atom_site_fract_x
_atom_site_fract_y
_atom_site_fract_z
0	C	0.702093	0.538591	0.11712
0	C	0.266299	0.0400377	0.388191
0	C	0.265778	0.507775	0.888827
0	C	0.701462	0.00587158	0.617708
0	C	0.717453	0.396747	0.118207
0	C	0.251449	0.89796	0.387567
0	C	0.250462	0.64966	0.887777
0	C	0.716355	0.147927	0.61841
0	H	0.690045	0.344591	0.175857
0	H	0.279429	0.845728	0.330788
0	H	0.277829	0.701799	0.83004
0	H	0.688365	0.200158	0.675165
0	C	0.6864	0.383902	0.00568156
0	C	0.281765	0.886426	0.500692
0	C	0.281634	0.66247	0.00022023
0	C	0.686092	0.159545	0.505259
0	C	0.726873	0.353812	0.917072
0	C	0.240716	0.857148	0.58871
0	C	0.241292	0.692855	0.0889384
0	C	0.727181	0.188626	0.417301
0	H	0.733664	0.251843	0.911612
0	H	0.233523	0.75532	0.594191
0	H	0.234801	0.794933	0.0945067
0	H	0.734723	0.290344	0.411987
0	H	0.77262	0.393643	0.934875
0	H	0.195141	0.897865	0.570126
0	H	0.195422	0.65364	0.0711648
0	H	0.77265	0.147142	0.435674
0	C	0.702583	0.402976	0.811122
0	C	0.264743	0.90642	0.694609
0	C	0.265429	0.643375	0.194825
0	C	0.702887	0.139916	0.311329
0	H	0.741605	0.421997	0.762476
0	H	0.225696	0.924145	0.743489
0	H	0.226366	0.624298	0.243338
0	H	0.741761	0.122774	0.261967
0	H	0.676495	0.328244	0.769913
0	H	0.291392	0.832183	0.735475
0	H	0.291566	0.718017	0.236304
0	H	0.675969	0.214194	0.271105
0	C	0.662842	0.518783	0.816714
0	C	0.303818	0.0232762	0.68934
0	C	0.305144	0.527486	0.189211
0	C	0.664011	0.0227679	0.316528
0	H	0.66838	0.578464	0.747499
0	H	0.297158	0.0835252	0.75784
0	H	0.299597	0.467865	0.258427
0	H	0.670814	0.962606	0.248011
0	H	0.614484	0.491547	0.813431
0	H	0.352354	0.997373	0.694456
0	H	0.353511	0.554587	0.192424
0	H	0.615429	0.048337	0.311297
0	C	0.676128	0.596815	0.915362
0	C	0.291327	0.100213	0.589861
0	C	0.291735	0.449535	0.0905522
0	C	0.676485	0.945794	0.416007
0	H	0.721959	0.638844	0.914236
0	H	0.245586	0.142849	0.589753
0	H	0.245844	0.407763	0.0917646
0	H	0.722211	0.903096	0.41611
0	C	0.664558	0.520871	0.0129113
0	C	0.303421	0.0234905	0.492995
0	C	0.303355	0.525397	0.993003
0	C	0.664393	0.0224834	0.512896
0	H	0.614531	0.524048	0.0220648
0	H	0.353507	0.0267781	0.484388
0	H	0.353391	0.52199	0.983781
0	H	0.614317	0.0192449	0.521457
0	C	0.584627	0.532631	0.197883
0	C	0.384059	0.0354846	0.308439
0	C	0.383182	0.513414	0.807854
0	C	0.583698	0.010571	0.697339
0	C	0.564956	0.41395	0.224242
0	C	0.404226	0.917617	0.28076
0	C	0.402988	0.632081	0.78173
0	C	0.563612	0.128517	0.724901
0	H	0.596124	0.348623	0.263927
0	H	0.373378	0.852638	0.239826
0	H	0.371859	0.697626	0.742187
0	H	0.594492	0.193448	0.76579
0	C	0.505174	0.378415	0.200662
0	C	0.464043	0.882527	0.304456
0	C	0.462817	0.667291	0.805324
0	C	0.503827	0.163745	0.701149
0	H	0.489941	0.285639	0.220434
0	H	0.479664	0.790428	0.283733
0	H	0.478136	0.760062	0.785779
0	H	0.488253	0.255946	0.72181
0	C	0.464945	0.461791	0.151074
0	C	0.503797	0.965633	0.355505
0	C	0.502948	0.583576	0.854693
0	C	0.464006	0.0807159	0.650152
0	H	0.418189	0.432464	0.130513
0	H	0.550592	0.93654	0.376144
0	H	0.549738	0.612661	0.875297
0	H	0.417236	0.109917	0.629497
0	C	0.484014	0.581748	0.12725
0	C	0.484284	0.0848466	0.380685
0	C	0.483772	0.463599	0.878237
0	C	0.483443	0.96141	0.625097
0	H	0.452259	0.646776	0.0892543
0	H	0.515753	0.149626	0.419789
0	H	0.515477	0.398302	0.916013
0	H	0.451936	0.896672	0.586057
0	C	0.543792	0.617123	0.150789
0	C	0.42444	0.119706	0.35708
0	C	0.423947	0.428578	0.854699
0	C	0.543269	0.926378	0.648769
0	H	0.55879	0.710827	0.131736
0	H	0.40904	0.212759	0.377313
0	H	0.408856	0.334876	0.873534
0	H	0.558579	0.833239	0.628643
0	C	0.739344	0.808726	0.0754344
0	C	0.22751	0.309272	0.428851
0	C	0.228559	0.237644	0.930473
0	C	0.740235	0.736711	0.576799
0	H	0.727744	0.808344	0.990081
0	H	0.239279	0.309008	0.514109
0	H	0.240392	0.238023	0.0157474
0	H	0.728753	0.737082	0.491446
0	H	0.694695	0.819934	0.111878
0	H	0.272	0.321709	0.392074
0	H	0.273086	0.226359	0.893645
0	H	0.695585	0.724437	0.613086
0	C	0.779222	0.920369	0.103075
0	C	0.1869	0.419913	0.401577
0	C	0.188581	0.126061	0.903144
0	C	0.780644	0.625866	0.604385
0	H	0.825374	0.910274	0.0767976
0	H	0.140898	0.408533	0.428255
0	H	0.142512	0.136208	0.929797
0	H	0.826751	0.637079	0.578136
0	H	0.782514	0.937761	0.187222
0	H	0.18331	0.437411	0.31745
0	H	0.185057	0.108676	0.819005
0	H	0.783959	0.608315	0.688512
0	H	0.760296	0.00446311	0.0657822
0	H	0.205397	0.504438	0.438791
0	H	0.207567	0.041927	0.940285
0	H	0.762173	0.541443	0.566977
0	C	0.804964	0.670865	0.252129
0	C	0.16322	0.17047	0.251683
0	C	0.16272	0.375476	0.754064
0	C	0.804391	0.875182	0.754358
0	H	0.845123	0.731859	0.24263
0	H	0.122791	0.230835	0.260844
0	H	0.122542	0.314587	0.763741
0	H	0.84478	0.814698	0.745233
0	H	0.772427	0.727967	0.295864
0	H	0.195614	0.228226	0.208234
0	H	0.195171	0.318218	0.710283
0	H	0.771918	0.817483	0.797686
0	C	0.823281	0.557058	0.315808
0	C	0.145563	0.0564132	0.187822
0	C	0.144391	0.489187	0.69028
0	C	0.822084	0.989153	0.818314
0	H	0.856115	0.49897	0.277177
0	H	0.112431	0.998329	0.225688
0	H	0.111356	0.547007	0.728687
0	H	0.85504	0.0475146	0.780295
0	H	0.783874	0.498195	0.331174
0	H	0.185187	0.997683	0.173544
0	H	0.183744	0.548328	0.675195
0	H	0.782425	0.047613	0.832986
0	H	0.843673	0.583704	0.391975
0	H	0.125798	0.0827819	0.111119
0	H	0.124224	0.462447	0.613978
0	H	0.842081	0.962651	0.894823
0	C	0.82919	0.594267	0.0255273
0	C	0.138506	0.0919859	0.477515
0	C	0.138804	0.452038	0.980887
0	C	0.829344	0.954138	0.528782
0	H	0.856635	0.52305	0.069522
0	H	0.110408	0.0235024	0.431469
0	H	0.111401	0.523604	0.937166
0	H	0.857689	0.0218852	0.575252
0	H	0.806451	0.542689	0.959365
0	H	0.161063	0.0364196	0.541578
0	H	0.161645	0.503115	0.0471693
0	H	0.806928	0.0105315	0.465172
0	C	0.871145	0.693112	0.984627
0	C	0.0973782	0.189673	0.522288
0	C	0.0967531	0.353204	0.0214614
0	C	0.870136	0.856374	0.483278
0	H	0.898204	0.738407	0.0474308
0	H	0.0701998	0.238276	0.461375
0	H	0.0695994	0.308321	0.958541
0	H	0.897354	0.807107	0.543741
0	H	0.846283	0.76622	0.941064
0	H	0.122885	0.260392	0.567645
0	H	0.121569	0.279738	0.0647256
0	H	0.84437	0.786133	0.437821
0	H	0.903041	0.652182	0.931555
0	H	0.0655704	0.147011	0.574595
0	H	0.0649298	0.394015	0.0747302
0	H	0.90189	0.899042	0.430875
0	C	0.778457	0.352692	0.133006
0	C	0.190602	0.853213	0.371988
0	C	0.189438	0.693625	0.873019
0	C	0.777207	0.192653	0.634002
0	C	0.827948	0.30549	0.146961
0	C	0.141105	0.806124	0.357744
0	C	0.13987	0.740469	0.858997
0	C	0.82668	0.239849	0.648276
0	C	0.959195	0.345732	0.208302
0	C	0.0101267	0.849733	0.295728
0	C	0.00883804	0.699351	0.796551
0	C	0.957787	0.19687	0.709942
0	H	0.948196	0.397081	0.278774
0	H	0.0194718	0.894142	0.221235
0	H	0.0194975	0.650415	0.724664
0	H	0.948335	0.151397	0.78395
0	H	0.963314	0.413547	0.145177
0	H	0.00894405	0.923038	0.355052
0	H	0.00557797	0.629406	0.858248
0	H	0.959333	0.124332	0.649999
0	H	0.00360281	0.301737	0.223174
0	H	0.964799	0.807872	0.287539
0	H	0.964085	0.742579	0.783687
0	H	0.00296974	0.239227	0.718847
0	C	0.890102	0.117405	0.282052
0	C	0.0770825	0.617643	0.224873
0	C	0.0775063	0.92904	0.724671
0	C	0.890451	0.428103	0.781696
0	H	0.855422	0.0472961	0.26107
0	H	0.110598	0.54562	0.24693
0	H	0.111995	0.99933	0.746223
0	H	0.856662	0.499738	0.760034
0	H	0.875617	0.166218	0.351786
0	H	0.0925273	0.664271	0.154801
0	H	0.0922183	0.881012	0.654719
0	H	0.875288	0.380914	0.851707
0	H	0.932447	0.0681533	0.303238
0	H	0.0340743	0.570889	0.20377
0	H	0.0351001	0.978008	0.703614
0	H	0.933333	0.475411	0.802716
0	C	0.920665	0.142866	0.0529268
0	C	0.0469947	0.649136	0.453921
0	C	0.0465174	0.901136	0.953432
0	C	0.920467	0.398003	0.552527
0	H	0.92771	0.207145	0.988201
0	H	0.0405949	0.715267	0.517519
0	H	0.0396179	0.836119	0.0176502
0	H	0.927203	0.332226	0.488746
0	H	0.884571	0.077847	0.0271991
0	H	0.0824401	0.583234	0.480674
0	H	0.0823791	0.96645	0.979709
0	H	0.884814	0.463394	0.525847
0	H	0.962524	0.089288	0.0672843
0	H	0.00464269	0.597142	0.440451
0	H	0.0045066	0.954165	0.939251
0	H	0.962659	0.450659	0.566224
0	C	0.640876	0.178007	0.010547
0	C	0.32775	0.680852	0.49739
0	C	0.327322	0.868246	0.99526
0	C	0.640161	0.365171	0.508447
0	H	0.666756	0.149983	0.0809762
0	H	0.303349	0.652613	0.425567
0	H	0.30169	0.896345	0.924597
0	H	0.664919	0.393354	0.579948
0	H	0.662972	0.14611	0.940258
0	H	0.304234	0.648744	0.56616
0	H	0.304991	0.900157	0.0653072
0	H	0.663325	0.397319	0.439344
0	H	0.594336	0.143736	0.0104485
0	H	0.374414	0.647007	0.500299
0	H	0.373899	0.902392	0.995861
0	H	0.593497	0.39902	0.506251
0	O	0.658543	0.709535	0.246874
0	O	0.309705	0.211559	0.259054
0	O	0.309095	0.336909	0.758699
0	O	0.657942	0.834297	0.746721
0	O	0.681666	0.497132	0.31257
0	O	0.28745	0.998826	0.193043
0	O	0.286102	0.549572	0.693421
0	O	0.680262	0.0468564	0.812924
0	O	0.632763	0.310747	0.00845161
0	O	0.335585	0.813643	0.499809
0	O	0.335333	0.735466	0.997472
0	O	0.632292	0.232381	0.505924
0	O	0.63223	0.695155	0.918383
0	O	0.335553	0.198053	0.587368
0	O	0.335494	0.350934	0.0875311
0	O	0.632235	0.848003	0.418443
0	H	0.637267	0.752818	0.857204
0	H	0.330231	0.256158	0.648102
0	H	0.330381	0.293202	0.148597
0	H	0.637477	0.790043	0.357596
0	S	0.659019	0.574715	0.225335
0	S	0.3096	0.0767164	0.280453
0	S	0.308742	0.47168	0.780472
0	S	0.658119	0.969153	0.725415
0	Si	0.770479	0.651998	0.116021
0	Si	0.19727	0.151908	0.38813
0	Si	0.19737	0.39439	0.890057
0	Si	0.770468	0.89397	0.617855
0	Si	0.899977	0.227839	0.172549
0	Si	0.0684426	0.730553	0.333041
0	Si	0.0676826	0.817518	0.833405
0	Si	0.899238	0.315796	0.673112
