#******************************************
#
# CIF file created by Zeo++
# Zeo++ is an open source package to
# analyze microporous materials
#
#*******************************************

_cell_length_a		13.2541(0)
_cell_length_b		13.263(0)
_cell_length_c		7.0897(0)
_cell_angle_alpha		90(0)
_cell_angle_beta		90(0)
_cell_angle_gamma		90(0)

_symmetry_space_group_name_H-M		'P1'
_symmetry_Int_Tables_number		1
_symmetry_cell_setting		Monoclinic

loop_
_symmetry_equiv_pos_as_xyz
'+x,+y,+z'

loop_
_atom_site_label
_atom_site_type_symbol
_atom_site_fract_x
_atom_site_fract_y
_atom_site_fract_z
0	C	0.0371759	0.182764	0.240404
0	C	0.964502	0.818329	0.240354
0	C	0.183007	0.964168	0.765235
0	C	0.818517	0.0368722	0.765189
0	C	0.128883	0.234494	0.225801
0	C	0.872795	0.766501	0.225777
0	C	0.234653	0.872411	0.77997
0	C	0.766896	0.128661	0.779966
0	C	0.144165	0.306686	0.0849191
0	C	0.857532	0.694305	0.084874
0	C	0.306895	0.8571	0.920932
0	C	0.694741	0.143965	0.920972
0	C	0.0678277	0.329455	0.954493
0	C	0.933873	0.671551	0.954482
0	C	0.329731	0.933421	0.0512079
0	C	0.671936	0.0676341	0.0512741
0	C	0.97375	0.281095	0.974819
0	C	0.0279403	0.719938	0.974774
0	C	0.281435	0.0274965	0.0308429
0	C	0.72019	0.973545	0.0308395
0	C	0.958956	0.209331	0.11531
0	C	0.0427251	0.791748	0.115261
0	C	0.209588	0.0423176	0.890404
0	C	0.791892	0.958684	0.890173
0	C	0.182689	0.519462	0.601081
0	C	0.819011	0.481564	0.601076
0	C	0.519793	0.818452	0.40453
0	C	0.481898	0.182581	0.404588
0	C	0.253736	0.598326	0.609363
0	C	0.747942	0.402696	0.609366
0	C	0.59869	0.747429	0.396261
0	C	0.40299	0.25357	0.396302
0	C	0.275413	0.655513	0.449064
0	C	0.726293	0.345505	0.449088
0	C	0.655945	0.7258	0.556545
0	C	0.34575	0.275232	0.556581
0	C	0.226358	0.635201	0.278613
0	C	0.775337	0.365808	0.278624
0	C	0.635622	0.774846	0.726991
0	C	0.366075	0.226191	0.727024
0	C	0.155754	0.557068	0.268927
0	C	0.845887	0.443971	0.268901
0	C	0.557425	0.845403	0.736686
0	C	0.444267	0.155633	0.736725
0	C	0.134024	0.499482	0.428728
0	C	0.867679	0.501536	0.428726
0	C	0.499797	0.867089	0.576894
0	C	0.501872	0.133904	0.576902
0	C	0.0834801	0.39787	0.794266
0	C	0.918225	0.603122	0.794283
0	C	0.398213	0.91769	0.211399
0	C	0.603483	0.0833557	0.211473
0	C	0.164268	0.457737	0.769823
0	C	0.837424	0.543272	0.769847
0	C	0.458027	0.836891	0.235789
0	C	0.543615	0.164124	0.235809
0	C	0.020936	0.0943539	0.375639
0	C	0.98066	0.906664	0.375627
0	C	0.0946422	0.98037	0.629943
0	C	0.906881	0.0206521	0.6298
0	C	0.928304	0.11382	0.504011
0	C	0.0732614	0.887206	0.504098
0	C	0.114131	0.0729583	0.501556
0	C	0.887415	0.928055	0.501431
0	H	0.190584	0.218585	0.323259
0	H	0.811094	0.782427	0.323207
0	H	0.218668	0.810746	0.6826
0	H	0.782889	0.190308	0.682534
0	H	0.216686	0.345161	0.0764615
0	H	0.785015	0.65584	0.0764208
0	H	0.3453	0.784593	0.929454
0	H	0.656318	0.216468	0.929578
0	H	0.912032	0.29949	0.879032
0	H	0.089653	0.70156	0.878953
0	H	0.299889	0.0891784	0.126613
0	H	0.701781	0.911869	0.126641
0	H	0.88559	0.172048	0.126265
0	H	0.116058	0.829016	0.126206
0	H	0.172411	0.115683	0.879309
0	H	0.829023	0.885335	0.878933
0	H	0.292748	0.614449	0.740968
0	H	0.708941	0.3866	0.740959
0	H	0.614808	0.70845	0.264664
0	H	0.386861	0.29255	0.264673
0	H	0.331433	0.71577	0.456362
0	H	0.670285	0.285244	0.456403
0	H	0.716225	0.669805	0.549251
0	H	0.285428	0.331182	0.549292
0	H	0.242964	0.680331	0.154224
0	H	0.758741	0.320678	0.15426
0	H	0.680815	0.758258	0.851363
0	H	0.320892	0.242766	0.851379
0	H	0.117313	0.540853	0.136033
0	H	0.884364	0.460185	0.135998
0	H	0.541174	0.883785	0.869593
0	H	0.460472	0.117178	0.869591
0	H	0.0796306	0.437922	0.418272
0	H	0.922078	0.563095	0.418263
0	H	0.43819	0.921443	0.587332
0	H	0.563441	0.0795058	0.58733
0	H	0.0231044	0.396151	0.688159
0	H	0.978587	0.604834	0.688146
0	H	0.396545	0.977994	0.317579
0	H	0.605177	0.023048	0.317636
0	H	0.223074	0.462555	0.877972
0	H	0.778606	0.538468	0.87796
0	H	0.462792	0.778115	0.12766
0	H	0.538804	0.222857	0.127602
0	H	0.942568	0.181102	0.59217
0	H	0.0589898	0.819909	0.592193
0	H	0.181478	0.0587236	0.41349
0	H	0.82009	0.94227	0.4133
0	H	0.861229	0.131257	0.417192
0	H	0.140358	0.869794	0.417311
0	H	0.131524	0.14	0.588412
0	H	0.870007	0.861011	0.588259
0	H	0.935218	0.0132771	0.157531
0	H	0.0663371	0.987759	0.157455
0	H	0.0134665	0.0659912	0.848101
0	H	0.98794	0.934943	0.848019
0	C	0.000783537	0.000514826	0.251372
0	C	0.000724731	0.000486829	0.754168
