#******************************************
#
# CIF file created by Zeo++
# Zeo++ is an open source package to
# analyze microporous materials
#
#*******************************************

_cell_length_a		13.1043(0)
_cell_length_b		12.7962(0)
_cell_length_c		15.8708(0)
_cell_angle_alpha		90(0)
_cell_angle_beta		99.2248(0)
_cell_angle_gamma		90(0)

_symmetry_space_group_name_H-M		'P1'
_symmetry_Int_Tables_number		1
_symmetry_cell_setting		Monoclinic

loop_
_symmetry_equiv_pos_as_xyz
'+x,+y,+z'

loop_
_atom_site_label
_atom_site_type_symbol
_atom_site_fract_x
_atom_site_fract_y
_atom_site_fract_z
0	N	0.765235	0.460576	0.145866
0	N	0.190065	0.953892	0.1917
0	N	0.195182	0.552856	0.692702
0	N	0.769113	0.0436507	0.645677
0	N	0.772778	0.285391	0.116983
0	N	0.178297	0.779388	0.215145
0	N	0.183466	0.727076	0.717139
0	N	0.777374	0.218933	0.61663
0	C	0.719483	0.554357	0.150901
0	C	0.238108	0.0500963	0.190193
0	C	0.242616	0.456432	0.689775
0	C	0.72288	0.950042	0.650028
0	C	0.869766	0.315458	0.169472
0	C	0.0832594	0.810106	0.164812
0	C	0.0881475	0.696724	0.667033
0	C	0.873676	0.188649	0.670035
0	C	0.756166	0.181051	0.0704853
0	C	0.196843	0.678601	0.262567
0	C	0.201869	0.827308	0.765318
0	C	0.760668	0.323961	0.571061
0	C	0.75584	0.089149	0.133321
0	C	0.197501	0.584408	0.201139
0	C	0.20249	0.921857	0.704264
0	C	0.760922	0.415025	0.634772
0	C	0.0377683	0.307581	0.2522
0	C	0.913881	0.808612	0.0822215
0	C	0.918487	0.698075	0.584796
0	C	0.0413929	0.196538	0.753504
0	C	0.953589	0.255388	0.205521
0	C	0.997066	0.754321	0.127331
0	C	0.00169068	0.752442	0.629908
0	C	0.957575	0.248557	0.706222
0	C	0.845935	0.16414	0.019432
0	C	0.109119	0.660225	0.316261
0	C	0.113816	0.844819	0.818845
0	C	0.850298	0.341874	0.520009
0	C	0.868481	0.425592	0.183923
0	C	0.0911406	0.922762	0.151135
0	C	0.0960242	0.584284	0.65274
0	C	0.871944	0.0786289	0.68502
0	C	0.65253	0.607666	0.331928
0	C	0.312144	0.107895	0.00983544
0	C	0.306488	0.396173	0.505677
0	C	0.647978	0.901361	0.82843
0	C	0.554232	0.643028	0.176819
0	C	0.406707	0.136962	0.166999
0	C	0.40814	0.367844	0.660353
0	C	0.555627	0.862428	0.67205
0	C	0.710349	0.503101	0.329197
0	C	0.254887	0.0030561	0.0107833
0	C	0.251758	0.50226	0.507803
0	C	0.706362	0.00581163	0.826691
0	C	0.708591	0.367814	0.103648
0	C	0.241873	0.866195	0.231452
0	C	0.247212	0.640136	0.732742
0	C	0.71331	0.136502	0.60262
0	C	0.779252	0.650119	0.177454
0	C	0.181426	0.148514	0.165681
0	C	0.184582	0.358028	0.668497
0	C	0.781579	0.854456	0.678932
0	C	0.611918	0.747357	0.176753
0	C	0.350897	0.242527	0.168293
0	C	0.352024	0.262867	0.664342
0	C	0.613314	0.757797	0.675442
0	C	0.650578	0.188103	0.010837
0	C	0.302961	0.685361	0.322221
0	C	0.307744	0.820563	0.825243
0	C	0.654903	0.317767	0.511491
0	C	0.95324	0.476678	0.229599
0	C	0.00428793	0.975388	0.105162
0	C	0.00910915	0.531556	0.607092
0	C	0.956254	0.0276855	0.731691
0	C	0.604944	0.561451	0.124252
0	C	0.352929	0.0540522	0.21578
0	C	0.3579	0.452092	0.710636
0	C	0.608981	0.942354	0.6199
0	C	0.0401213	0.416856	0.263765
0	C	0.916522	0.919548	0.072277
0	C	0.92109	0.587234	0.574608
0	C	0.0432522	0.0873569	0.765955
0	C	0.722303	0.732137	0.224536
0	C	0.240569	0.229248	0.11912
0	C	0.239909	0.276847	0.619254
0	C	0.722357	0.773925	0.725593
0	C	0.633006	0.0861027	0.95821
0	C	0.3223	0.584059	0.375294
0	C	0.326389	0.921748	0.878568
0	C	0.637488	0.420724	0.460088
0	C	0.720438	0.702674	0.318179
0	C	0.243908	0.202406	0.0248997
0	C	0.237662	0.303588	0.52424
0	C	0.71702	0.806127	0.818051
0	C	0.826018	0.0625993	0.966634
0	C	0.130028	0.559167	0.369104
0	C	0.133902	0.945681	0.872008
0	C	0.830575	0.444356	0.468374
0	C	0.630558	0.994556	0.0209813
0	C	0.324744	0.491535	0.313269
0	C	0.328516	0.0146967	0.816923
0	C	0.635374	0.511261	0.523871
0	C	0.549496	0.609184	0.269135
0	C	0.414353	0.108374	0.0738223
0	C	0.411499	0.394961	0.566107
0	C	0.547216	0.898926	0.762982
0	C	0.735079	0.987078	0.0810935
0	C	0.219987	0.483169	0.25352
0	C	0.223946	0.0229077	0.757015
0	C	0.740175	0.517968	0.583709
0	C	0.81803	0.96564	0.0232764
0	C	0.138317	0.461866	0.312783
0	C	0.141502	0.0431444	0.815746
0	C	0.82274	0.540743	0.525735
0	C	0.722013	0.0787676	0.90485
0	C	0.234667	0.57516	0.430015
0	C	0.238536	0.930057	0.933065
0	C	0.726418	0.429123	0.406687
0	H	0.586245	0.198975	0.0484191
0	H	0.3656	0.699239	0.284192
0	H	0.370839	0.807296	0.78743
0	H	0.590512	0.305867	0.548596
0	H	0.954492	0.170265	0.19785
0	H	0.995995	0.669584	0.132063
0	H	0.000370967	0.837157	0.634902
0	H	0.958812	0.333596	0.698092
0	H	0.95455	0.56192	0.239572
0	H	0.00924264	0.0598079	0.0958063
0	H	0.0140587	0.447176	0.597646
0	H	0.957094	0.942588	0.742293
0	H	0.921298	0.156719	0.0625488
0	H	0.0331154	0.656534	0.274507
0	H	0.0379658	0.848442	0.776849
0	H	0.92578	0.348388	0.56304
0	H	0.565923	0.00486231	0.0580074
0	H	0.388589	0.500769	0.275899
0	H	0.392402	0.0062105	0.779464
0	H	0.570799	0.500131	0.560782
0	H	0.106364	0.26015	0.278416
0	H	0.845682	0.765562	0.0531326
0	H	0.850141	0.741121	0.555862
0	H	0.110048	0.243952	0.779562
0	H	0.830866	0.0826555	0.176499
0	H	0.122897	0.578476	0.157767
0	H	0.128108	0.927541	0.660606
0	H	0.836204	0.420818	0.6777
0	H	0.613249	0.920372	0.985005
0	H	0.340797	0.417806	0.350472
0	H	0.344475	0.0882493	0.854364
0	H	0.618506	0.585972	0.488576
0	H	0.854187	0.231285	0.977354
0	H	0.104365	0.727859	0.35898
0	H	0.10921	0.776827	0.861222
0	H	0.858154	0.275504	0.477046
0	H	0.0475403	0.289073	0.441913
0	H	0.910176	0.814607	0.886016
0	H	0.913225	0.723222	0.389833
0	H	0.998763	0.217568	0.918357
0	H	0.890515	0.0508675	0.929639
0	H	0.0671154	0.547196	0.407711
0	H	0.0707478	0.957068	0.91048
0	H	0.894989	0.456413	0.431385
0	H	0.696202	0.10019	0.174452
0	H	0.256406	0.596408	0.15948
0	H	0.261821	0.910462	0.662914
0	H	0.701555	0.403467	0.676074
0	H	0.646968	0.256469	0.967931
0	H	0.304523	0.7547	0.364196
0	H	0.309353	0.750942	0.866897
0	H	0.651441	0.250164	0.467772
0	H	0.733981	0.920944	0.126615
0	H	0.22142	0.416108	0.208667
0	H	0.225306	0.0901916	0.712377
0	H	0.739331	0.58316	0.630112
0	H	0.472566	0.65343	0.143568
0	H	0.487649	0.145665	0.201572
0	H	0.490111	0.358793	0.692508
0	H	0.474933	0.851581	0.636851
0	H	0.495743	0.664768	0.294479
0	H	0.467495	0.165949	0.0507941
0	H	0.462338	0.336471	0.541578
0	H	0.491704	0.844381	0.787573
0	H	0.565576	0.4845	0.127202
0	H	0.387718	0.976419	0.207541
0	H	0.392053	0.529347	0.69994
0	H	0.569038	0.0193668	0.619976
0	H	0.571258	0.808635	0.208137
0	H	0.392442	0.304399	0.139336
0	H	0.390933	0.200257	0.633881
0	H	0.571231	0.697492	0.706649
0	H	0.5876	0.582883	0.0551708
0	H	0.371568	0.0715026	0.285104
0	H	0.380675	0.435815	0.779843
0	H	0.595076	0.918683	0.551255
0	H	0.955182	0.790956	0.917174
0	H	0.00406965	0.255073	0.417911
0	H	0.0528027	0.223633	0.944795
0	H	0.957285	0.747857	0.421168
0	H	0.785199	0.902454	0.977101
0	H	0.171528	0.398827	0.359218
0	H	0.173648	0.106485	0.862273
0	H	0.789702	0.604227	0.47987
0	H	0.612053	0.775868	0.111059
0	H	0.348298	0.266417	0.234774
0	H	0.353159	0.239536	0.731489
0	H	0.615959	0.727393	0.610679
0	H	0.557539	0.0904525	0.914559
0	H	0.397831	0.589036	0.418581
0	H	0.401836	0.916958	0.921973
0	H	0.561951	0.417112	0.416485
0	H	0.510159	0.532144	0.269471
0	H	0.452377	0.0308673	0.0726018
0	H	0.450223	0.471769	0.562994
0	H	0.507946	0.976232	0.760991
0	H	0.665469	0.0536096	0.77341
0	H	0.294539	0.548118	0.561943
0	H	0.294771	0.956397	0.0656517
0	H	0.668453	0.455877	0.275995
0	H	0.727687	0.158591	0.875702
0	H	0.228669	0.654747	0.459607
0	H	0.232764	0.850385	0.962595
0	H	0.731904	0.349793	0.376711
0	H	0.856794	0.635235	0.21632
0	H	0.105159	0.133665	0.125863
0	H	0.106537	0.372761	0.631636
0	H	0.858337	0.86946	0.718982
0	H	0.799202	0.68911	0.11766
0	H	0.165049	0.186475	0.225714
0	H	0.171963	0.320619	0.729838
0	H	0.803064	0.814027	0.620245
0	H	0.788405	0.518743	0.313452
0	H	0.178032	0.017656	0.0296939
0	H	0.17561	0.489725	0.528644
0	H	0.784716	0.990213	0.811538
0	H	0.80137	0.691005	0.352184
0	H	0.163567	0.189712	0.991257
0	H	0.156255	0.318483	0.494023
0	H	0.797276	0.819705	0.853307
0	H	0.766497	0.807231	0.223575
0	H	0.199111	0.305793	0.119856
0	H	0.198314	0.200644	0.62163
0	H	0.766639	0.698633	0.727134
0	H	0.632101	0.616502	0.397986
0	H	0.33402	0.119038	0.9446
0	H	0.3239	0.38349	0.439175
0	H	0.62425	0.893447	0.893418
0	H	0.691534	0.771257	0.350012
0	H	0.272909	0.271821	0.994426
0	H	0.262392	0.233359	0.492186
0	H	0.687787	0.73837	0.8506
