#******************************************
#
# CIF file created by Zeo++
# Zeo++ is an open source package to
# analyze microporous materials
#
#*******************************************

_cell_length_a		15.6108(0)
_cell_length_b		16.174(0)
_cell_length_c		23.4902(0)
_cell_angle_alpha		90(0)
_cell_angle_beta		90(0)
_cell_angle_gamma		118.081(0)

_symmetry_space_group_name_H-M		'P1'
_symmetry_Int_Tables_number		1
_symmetry_cell_setting		Monoclinic

loop_
_symmetry_equiv_pos_as_xyz
'+x,+y,+z'

loop_
_atom_site_label
_atom_site_type_symbol
_atom_site_fract_x
_atom_site_fract_y
_atom_site_fract_z
0	O	0.84308	0.915899	0.539124
0	O	0.975735	0.855496	0.533485
0	O	0.0321819	0.0402362	0.532673
0	O	0.0398238	0.954658	0.344894
0	O	0.90714	0.0150863	0.350436
0	O	0.850623	0.830444	0.351165
0	O	0.495037	0.253313	0.847911
0	O	0.627169	0.192302	0.842274
0	O	0.685037	0.37674	0.845293
0	O	0.697813	0.299418	0.655997
0	O	0.565384	0.360787	0.661862
0	O	0.508866	0.177011	0.658524
0	O	0.184393	0.569268	0.227841
0	O	0.317116	0.50831	0.222136
0	O	0.37331	0.692038	0.225446
0	O	0.387672	0.615887	0.0361387
0	O	0.25525	0.676541	0.0416834
0	O	0.197734	0.492253	0.0385572
0	O	0.750954	0.810839	0.447926
0	O	0.0721476	0.873867	0.436479
0	O	0.999837	0.121798	0.441317
0	O	0.131935	0.0598225	0.436005
0	O	0.810752	0.996733	0.447551
0	O	0.882926	0.748882	0.442507
0	O	0.40601	0.153549	0.754718
0	O	0.728467	0.212918	0.745909
0	O	0.654996	0.460565	0.754761
0	O	0.787043	0.397605	0.749107
0	O	0.463898	0.338496	0.758268
0	O	0.537854	0.091406	0.749226
0	O	0.0954746	0.471128	0.134664
0	O	0.418886	0.53086	0.125846
0	O	0.344278	0.777498	0.134732
0	O	0.476513	0.715779	0.129354
0	O	0.153643	0.655738	0.138011
0	O	0.227785	0.408535	0.12911
0	Si	0.765029	0.901107	0.487526
0	Si	0.986595	0.797111	0.478432
0	Si	0.0844265	0.110233	0.47778
0	Si	0.117891	0.969476	0.396502
0	Si	0.896096	0.0734179	0.405456
0	Si	0.798329	0.760456	0.406049
0	Si	0.417354	0.240762	0.796363
0	Si	0.639952	0.136433	0.786552
0	Si	0.738684	0.447225	0.790799
0	Si	0.774915	0.310272	0.707398
0	Si	0.552329	0.415703	0.717953
0	Si	0.455059	0.105332	0.712446
0	Si	0.107235	0.558278	0.176442
0	Si	0.330343	0.453499	0.166038
0	Si	0.427167	0.763793	0.171566
0	Si	0.465329	0.628583	0.0877401
0	Si	0.242183	0.732277	0.0973865
0	Si	0.144053	0.421687	0.0930028
0	C	0.64528	0.878183	0.518287
0	C	0.026436	0.710568	0.503548
0	C	0.175773	0.228543	0.504136
0	C	0.237614	0.99226	0.365755
0	C	0.85554	0.15939	0.380239
0	C	0.706935	0.642259	0.379599
0	C	0.296494	0.209629	0.82893
0	C	0.672906	0.0453874	0.81201
0	C	0.833037	0.564325	0.816823
0	C	0.894572	0.338553	0.673972
0	C	0.51862	0.506821	0.693582
0	C	0.363715	0.989869	0.682609
0	C	0.987353	0.529351	0.20984
0	C	0.364088	0.362447	0.190488
0	C	0.518321	0.879349	0.201419
0	C	0.586123	0.659543	0.0551155
0	C	0.208806	0.823018	0.0718806
0	C	0.0499101	0.304617	0.0668568
0	H	0.618313	0.810552	0.542678
0	H	0.104797	0.757141	0.515838
0	H	0.129139	0.257633	0.523332
0	H	0.264467	0.0597199	0.341179
0	H	0.777132	0.112248	0.368251
0	H	0.753543	0.613417	0.360054
0	H	0.274689	0.137503	0.846895
0	H	0.747917	0.0879782	0.830476
0	H	0.790616	0.595496	0.838663
0	H	0.921622	0.412828	0.658427
0	H	0.43909	0.465436	0.682636
0	H	0.409844	0.964009	0.659266
0	H	0.959848	0.454406	0.224212
0	H	0.443299	0.404029	0.202128
0	H	0.472024	0.905289	0.224464
0	H	0.607563	0.731193	0.0365109
0	H	0.13335	0.780209	0.05404
0	H	0.0923607	0.273879	0.0446025
0	C	0.572046	0.863911	0.470034
0	C	0.0257051	0.645792	0.45508
0	C	0.235373	0.294631	0.455125
0	C	0.311147	0.00691546	0.413911
0	C	0.856168	0.224398	0.428521
0	C	0.647798	0.575817	0.42859
0	C	0.218412	0.199215	0.785194
0	C	0.680322	0.985296	0.762936
0	C	0.889626	0.629224	0.766708
0	C	0.970565	0.338779	0.716235
0	C	0.529153	0.57672	0.741458
0	C	0.304639	0.917438	0.728696
0	C	0.911882	0.531086	0.167971
0	C	0.355235	0.293408	0.142454
0	C	0.57772	0.95162	0.155347
0	C	0.664713	0.671228	0.0988366
0	C	0.202629	0.883923	0.120861
0	C	0.993982	0.239187	0.116899
0	H	0.498503	0.811346	0.483848
0	H	0.0779986	0.619803	0.46585
0	H	0.241239	0.36478	0.462676
0	H	0.384425	0.0601847	0.400147
0	H	0.804089	0.250519	0.417463
0	H	0.642216	0.505824	0.420816
0	H	0.146129	0.154622	0.804377
0	H	0.74364	0.973365	0.770852
0	H	0.906371	0.702024	0.777322
0	H	0.0432582	0.395044	0.703714
0	H	0.467875	0.593129	0.738569
0	H	0.353469	0.908547	0.75954
0	H	0.838806	0.475366	0.180407
0	H	0.416653	0.277299	0.145866
0	H	0.529132	0.960477	0.124317
0	H	0.736785	0.716228	0.0795084
0	H	0.13946	0.896194	0.113221
0	H	0.977205	0.166531	0.105898
0	H	0.587652	0.833792	0.431371
0	H	0.0529738	0.685886	0.414848
0	H	0.197415	0.270886	0.413654
0	H	0.295072	0.0363672	0.452726
0	H	0.828467	0.184383	0.468742
0	H	0.685975	0.599469	0.469995
0	H	0.222076	0.160336	0.747104
0	H	0.695307	0.022983	0.721651
0	H	0.844524	0.611334	0.727559
0	H	0.95785	0.357227	0.759801
0	H	0.522883	0.544942	0.784169
0	H	0.260929	0.942338	0.753647
0	H	0.924028	0.512954	0.124204
0	H	0.362429	0.325704	0.0998365
0	H	0.621451	0.926579	0.130568
0	H	0.660684	0.71019	0.136795
0	H	0.188112	0.84667	0.162288
0	H	0.0394978	0.25674	0.155835
0	C	0.571042	0.955777	0.454966
0	C	0.925338	0.5617	0.444636
0	C	0.337792	0.304236	0.450488
0	C	0.313415	0.915549	0.428734
0	C	0.956554	0.308386	0.439178
0	C	0.545244	0.565713	0.433574
0	C	0.223503	0.292359	0.766253
0	C	0.588582	0.890346	0.75781
0	C	0.984568	0.62616	0.754142
0	C	0.972969	0.245023	0.717832
0	C	0.625298	0.667975	0.73729
0	C	0.23669	0.822253	0.701385
0	C	0.91101	0.625611	0.167066
0	C	0.259223	0.201764	0.145706
0	C	0.64564	0.0469106	0.182536
0	C	0.660785	0.57871	0.118085
0	C	0.29483	0.97864	0.125343
0	C	0.899031	0.241944	0.130174
0	H	0.644933	0.00870978	0.441729
0	H	0.877328	0.586651	0.42454
0	H	0.331966	0.23461	0.44115
0	H	0.239971	0.862216	0.442381
0	H	0.00372115	0.283584	0.460494
0	H	0.550758	0.635155	0.443119
0	H	0.280316	0.325015	0.733181
0	H	0.525543	0.902304	0.74891
0	H	0.967394	0.553435	0.742679
0	H	0.902328	0.190092	0.734065
0	H	0.686498	0.651617	0.741423
0	H	0.193383	0.771858	0.735006
0	H	0.981609	0.679897	0.150321
0	H	0.197887	0.217803	0.141069
0	H	0.689326	0.0970077	0.148878
0	H	0.603234	0.545273	0.150678
0	H	0.357739	0.966329	0.133945
0	H	0.916276	0.314487	0.142122
0	H	0.52324	0.945006	0.417507
0	H	0.932353	0.514093	0.413342
0	H	0.376687	0.350009	0.413694
0	H	0.361994	0.926935	0.465911
0	H	0.949037	0.35692	0.469528
0	H	0.506695	0.519696	0.470372
0	H	0.153642	0.277528	0.745636
0	H	0.595021	0.851003	0.720577
0	H	0.0203306	0.669568	0.716394
0	H	0.0289449	0.249581	0.748673
0	H	0.63178	0.714565	0.773765
0	H	0.280162	0.792966	0.680708
0	H	0.854583	0.621876	0.136859
0	H	0.253945	0.15579	0.109139
0	H	0.60213	0.0765047	0.202778
0	H	0.730411	0.594516	0.139401
0	H	0.289284	0.0185739	0.162536
0	H	0.863736	0.198022	0.16781
0	C	0.537045	0.993108	0.505603
0	C	0.8768	0.507474	0.499334
0	C	0.397206	0.34448	0.505097
0	C	0.347164	0.878429	0.377879
0	C	0.00675441	0.361147	0.38439
0	C	0.485573	0.525482	0.379065
0	C	0.244775	0.362466	0.815253
0	C	0.569623	0.830918	0.811992
0	C	0.0543494	0.65922	0.805267
0	C	0.993639	0.215678	0.659237
0	C	0.63424	0.719877	0.680941
0	C	0.168854	0.831717	0.657553
0	C	0.89255	0.655515	0.226051
0	C	0.249107	0.149176	0.201923
0	C	0.712938	0.0376728	0.226828
0	C	0.641895	0.508978	0.0691518
0	C	0.313189	0.0374863	0.0709487
0	C	0.828765	0.209498	0.0793112
0	H	0.569636	0.0702085	0.502582
0	H	0.805692	0.506206	0.504744
0	H	0.451673	0.318648	0.509528
0	H	0.314942	0.801355	0.380963
0	H	0.0763678	0.359272	0.379214
0	H	0.43062	0.550747	0.374963
0	H	0.319615	0.420733	0.810562
0	H	0.490831	0.783573	0.816176
0	H	0.0980002	0.621641	0.805367
0	H	0.948996	0.138927	0.654166
0	H	0.711701	0.759996	0.66892
0	H	0.118615	0.851934	0.679376
0	H	0.940411	0.731674	0.231697
0	H	0.171368	0.108612	0.213223
0	H	0.763481	0.01745	0.205416
0	H	0.568177	0.448901	0.0740173
0	H	0.392008	0.0842595	0.0661817
0	H	0.785382	0.247334	0.0797028
0	H	0.456968	0.966095	0.502913
0	H	0.860751	0.433445	0.495211
0	H	0.440217	0.422118	0.501584
0	H	0.427313	0.905823	0.38019
0	H	0.0258861	0.43601	0.388222
0	H	0.443094	0.447777	0.382431
0	H	0.195934	0.394313	0.812488
0	H	0.603787	0.784335	0.807752
0	H	0.106841	0.734505	0.800398
0	H	0.0700027	0.229532	0.656741
0	H	0.608623	0.772964	0.687001
0	H	0.122143	0.763121	0.636964
0	H	0.817502	0.645402	0.228802
0	H	0.275201	0.0964083	0.196027
0	H	0.759394	0.106339	0.247389
0	H	0.693043	0.479729	0.0718756
0	H	0.279713	0.0846459	0.0753321
0	H	0.776079	0.134247	0.0840763
0	C	0.562622	0.965602	0.563342
0	C	0.938639	0.550311	0.552713
0	C	0.33342	0.318465	0.558711
0	C	0.320513	0.905446	0.320311
0	C	0.944447	0.319598	0.331029
0	C	0.549018	0.552221	0.325288
0	C	0.234847	0.316742	0.873714
0	C	0.607967	0.891252	0.865847
0	C	0.000717624	0.643507	0.862347
0	C	0.972369	0.265537	0.60986
0	C	0.576985	0.652999	0.632353
0	C	0.226685	0.905185	0.612064
0	C	0.910451	0.602281	0.274827
0	C	0.304885	0.215499	0.251062
0	C	0.654698	0.964398	0.272263
0	C	0.649735	0.553846	0.0106004
0	C	0.273313	0.976616	0.0174183
0	C	0.881719	0.225435	0.0219824
0	H	0.570685	0.0183023	0.595927
0	H	0.896437	0.513988	0.591087
0	H	0.375623	0.316184	0.596074
0	H	0.312443	0.852812	0.287681
0	H	0.986884	0.355636	0.292661
0	H	0.506454	0.554586	0.288135
0	H	0.249535	0.36879	0.907906
0	H	0.565131	0.852245	0.903295
0	H	0.0454971	0.638027	0.897142
0	H	0.963353	0.226065	0.569826
0	H	0.609845	0.684429	0.590869
0	H	0.176023	0.913513	0.58242
0	H	0.919268	0.640305	0.315413
0	H	0.271036	0.183368	0.292223
0	H	0.70504	0.956201	0.302244
0	H	0.63583	0.501765	0.976537
0	H	0.315488	0.0150348	0.979639
0	H	0.836503	0.230975	0.987476
0	H	0.502192	0.898445	0.577971
0	H	0.00275455	0.538243	0.552184
0	H	0.312554	0.373615	0.568022
0	H	0.380375	0.972817	0.305472
0	H	0.881267	0.333121	0.33178
0	H	0.570123	0.497367	0.31557
0	H	0.159266	0.261435	0.880268
0	H	0.683485	0.90568	0.874242
0	H	0.990493	0.705038	0.872538
0	H	0.0351226	0.335519	0.603017
0	H	0.501987	0.643323	0.631472
0	H	0.269022	0.880496	0.585878
0	H	0.846286	0.532848	0.280427
0	H	0.380001	0.225545	0.252575
0	H	0.612037	0.989153	0.298109
0	H	0.724582	0.610414	0.00360773
0	H	0.197792	0.962633	0.00958775
0	H	0.89186	0.163974	0.0114702
0	C	0.65618	0.956554	0.559998
0	C	0.971365	0.655729	0.557121
0	C	0.241657	0.223652	0.551645
0	C	0.226488	0.913588	0.32424
0	C	0.909732	0.21384	0.326358
0	C	0.64058	0.647186	0.332412
0	C	0.304888	0.275115	0.879056
0	C	0.604623	0.984289	0.859929
0	C	0.901616	0.554954	0.860788
0	C	0.880736	0.275127	0.621813
0	C	0.574638	0.557489	0.639259
0	C	0.295105	0.000302352	0.639231
0	C	0.000951785	0.590662	0.263054
0	C	0.306833	0.310845	0.244285
0	C	0.586632	0.869189	0.245124
0	C	0.577444	0.592915	0.00559528
0	C	0.276012	0.883267	0.0233297
0	C	0.980782	0.314046	0.0233291
0	H	0.716733	0.0253297	0.546953
0	H	0.906668	0.665496	0.565611
0	H	0.263631	0.168983	0.54233
0	H	0.166662	0.844744	0.337854
0	H	0.973358	0.202752	0.316971
0	H	0.618334	0.701543	0.342066
0	H	0.380126	0.333564	0.882881
0	H	0.528496	0.968745	0.851527
0	H	0.913283	0.49385	0.850805
0	H	0.818896	0.203936	0.628383
0	H	0.650564	0.568687	0.640526
0	H	0.251316	0.0292173	0.660252
0	H	0.0642372	0.661409	0.257895
0	H	0.230821	0.299323	0.242388
0	H	0.630652	0.840348	0.22437
0	H	0.50278	0.533113	0.0030127
0	H	0.352215	0.898395	0.0310098
0	H	0.969107	0.375039	0.0336264
0	H	0.675631	0.9424	0.602903
0	H	0.0189278	0.684969	0.595074
0	H	0.201404	0.202814	0.592436
0	H	0.205818	0.926876	0.281449
0	H	0.860986	0.185277	0.288809
0	H	0.680518	0.668426	0.291538
0	H	0.290995	0.235994	0.919617
0	H	0.624893	0.0228418	0.900841
0	H	0.867887	0.540924	0.903561
0	H	0.861684	0.30367	0.583831
0	H	0.541036	0.513359	0.601301
0	H	0.337101	0.0509101	0.605268
0	H	0.0176653	0.559399	0.300629
0	H	0.33932	0.354514	0.282568
0	H	0.544445	0.81861	0.279025
0	H	0.588813	0.630425	0.96458
0	H	0.254366	0.844222	0.982611
0	H	0.0140132	0.328264	0.980419
0	H	0.946867	0.995393	0.655356
0	H	0.907278	0.871864	0.655182
0	H	0.0341493	0.953103	0.650997
0	H	0.938375	0.876761	0.228479
0	H	0.975263	0.999758	0.229018
0	H	0.848966	0.916419	0.232644
0	H	0.593109	0.326933	0.965916
0	H	0.553441	0.203418	0.964597
0	H	0.680556	0.284755	0.9625
0	H	0.584805	0.220906	0.537231
0	H	0.650177	0.346275	0.539476
0	H	0.519913	0.287603	0.541246
0	H	0.297214	0.648168	0.346622
0	H	0.231597	0.522818	0.344436
0	H	0.361868	0.581242	0.342867
0	H	0.291779	0.543551	0.91799
0	H	0.32856	0.6665	0.919521
0	H	0.202111	0.582971	0.921271
0	Si	0.953104	0.938116	0.559585
0	Si	0.929883	0.932549	0.32433
0	Si	0.603708	0.273559	0.869821
0	Si	0.589591	0.280333	0.633901
0	Si	0.292658	0.58865	0.250035
0	Si	0.279023	0.59551	0.0141153
0	C	0.961055	0.939908	0.637734
0	C	0.922383	0.931093	0.246167
0	C	0.608088	0.271921	0.948119
0	C	0.585896	0.284007	0.555672
0	C	0.296053	0.58498	0.328275
0	C	0.274998	0.597389	0.935813
