#******************************************
#
# CIF file created by Zeo++
# Zeo++ is an open source package to
# analyze microporous materials
#
#*******************************************

_cell_length_a		27.2238(0)
_cell_length_b		6.56994(0)
_cell_length_c		13.2343(0)
_cell_angle_alpha		90(0)
_cell_angle_beta		97.769(0)
_cell_angle_gamma		90(0)

_symmetry_space_group_name_H-M		'P1'
_symmetry_Int_Tables_number		1
_symmetry_cell_setting		Monoclinic

loop_
_symmetry_equiv_pos_as_xyz
'+x,+y,+z'

loop_
_atom_site_label
_atom_site_type_symbol
_atom_site_fract_x
_atom_site_fract_y
_atom_site_fract_z
0	S	0.200891	0.300046	0.317341
0	S	0.803227	0.300568	0.70309
0	S	0.70402	0.795061	0.316064
0	S	0.30014	0.795441	0.704395
0	P	0.128638	0.481081	0.129775
0	P	0.875534	0.481191	0.890754
0	P	0.631326	0.9747	0.128754
0	P	0.372888	0.974862	0.891782
0	O	0.205888	0.0890657	0.350958
0	O	0.798219	0.0895639	0.669513
0	O	0.709296	0.58415	0.349636
0	O	0.294859	0.58447	0.670909
0	O	0.240737	0.384945	0.266797
0	O	0.763391	0.385513	0.75363
0	O	0.743597	0.880682	0.264964
0	O	0.260575	0.88108	0.755509
0	O	0.0729786	0.378501	0.0949947
0	O	0.931132	0.378123	0.92562
0	O	0.5756	0.872225	0.094555
0	O	0.428552	0.871927	0.926063
0	O	0.126155	0.6986	0.160799
0	O	0.878151	0.698762	0.85989
0	O	0.62881	0.192377	0.159472
0	O	0.375517	0.192607	0.861256
0	N	0.148967	0.306807	0.22713
0	N	0.855181	0.307309	0.793256
0	N	0.651887	0.801012	0.226244
0	N	0.352315	0.801578	0.79411
0	C	0.149719	0.811143	0.663818
0	C	0.85447	0.811553	0.356624
0	C	0.65243	0.308961	0.661376
0	C	0.351722	0.309423	0.359104
0	C	0.163229	0.686637	0.577849
0	C	0.840919	0.687032	0.44255
0	C	0.6664	0.183357	0.576197
0	C	0.337678	0.1837	0.444255
0	C	0.166642	0.776556	0.482949
0	C	0.837554	0.776926	0.537475
0	C	0.670277	0.272599	0.481314
0	C	0.333837	0.272897	0.539109
0	C	0.178941	0.660027	0.401843
0	C	0.825206	0.6604	0.618567
0	C	0.682674	0.155358	0.400545
0	C	0.321418	0.155615	0.619854
0	C	0.187831	0.450567	0.414656
0	C	0.816268	0.45099	0.605717
0	C	0.691211	0.945723	0.413581
0	C	0.312903	0.945956	0.606806
0	C	0.185967	0.361592	0.510792
0	C	0.818061	0.362081	0.509533
0	C	0.689151	0.85762	0.509825
0	C	0.314952	0.857941	0.510535
0	C	0.173615	0.477204	0.591443
0	C	0.830424	0.477697	0.428901
0	C	0.676675	0.973908	0.590187
0	C	0.327422	0.974308	0.430194
0	C	0.222714	0.350696	0.871622
0	C	0.781312	0.350777	0.148672
0	C	0.72558	0.845489	0.870886
0	C	0.278469	0.845567	0.149371
0	C	0.212183	0.192604	0.936186
0	C	0.791871	0.19273	0.0840895
0	C	0.714805	0.686953	0.934934
0	C	0.289302	0.687018	0.0853666
0	C	0.183482	0.230485	0.0143168
0	C	0.820583	0.230658	0.00602941
0	C	0.685942	0.72443	0.0128512
0	C	0.318183	0.724542	0.00752291
0	C	0.165343	0.426404	0.0266613
0	C	0.838744	0.426557	0.993734
0	C	0.667874	0.920366	0.025393
0	C	0.336246	0.92051	0.99502
0	C	0.175473	0.58481	0.96235
0	C	0.828606	0.584945	0.0580438
0	C	0.678142	0.0792089	0.961422
0	C	0.325943	0.0793066	0.0589614
0	C	0.204416	0.546444	0.884717
0	C	0.799618	0.546555	0.135593
0	C	0.707222	0.0411767	0.883975
0	C	0.296797	0.0413033	0.136306
0	C	0.0740524	0.165638	0.128415
0	C	0.930042	0.165467	0.891902
0	C	0.5765	0.659928	0.128726
0	C	0.42763	0.659842	0.891592
0	C	0.110511	0.144556	0.229909
0	C	0.893609	0.144966	0.790348
0	C	0.613349	0.639271	0.229757
0	C	0.390807	0.639675	0.790512
0	C	0.0846261	0.164653	0.324966
0	C	0.91953	0.165422	0.695351
0	C	0.587914	0.660387	0.325328
0	C	0.416271	0.660969	0.694983
0	C	0.0215298	0.105103	0.137997
0	C	0.982571	0.104977	0.882326
0	C	0.523919	0.600628	0.138811
0	C	0.480211	0.600578	0.881488
0	C	0.984544	0.249312	0.147079
0	C	0.019564	0.249196	0.873317
0	C	0.487068	0.745576	0.147745
0	C	0.517057	0.745578	0.872553
0	C	0.936349	0.184593	0.155632
0	C	0.0677628	0.184474	0.864789
0	C	0.438774	0.681902	0.156142
0	C	0.565345	0.681921	0.86412
0	C	0.92497	0.977007	0.15449
0	C	0.079136	0.976876	0.86587
0	C	0.427162	0.474552	0.155267
0	C	0.576962	0.474536	0.865004
0	C	0.961942	0.832941	0.145128
0	C	0.0421474	0.832822	0.875112
0	C	0.463989	0.329728	0.146067
0	C	0.540127	0.329726	0.874113
0	C	0.0101741	0.896423	0.137286
0	C	0.993917	0.896288	0.88293
0	C	0.512293	0.392179	0.13818
0	C	0.491822	0.392157	0.88203
0	H	0.160712	0.940123	0.471665
0	H	0.843535	0.940424	0.548815
0	H	0.664604	0.436183	0.469808
0	H	0.339479	0.436538	0.550653
0	H	0.181498	0.736631	0.328762
0	H	0.822663	0.737043	0.691635
0	H	0.685556	0.231575	0.327525
0	H	0.318516	0.2318	0.692874
0	H	0.194128	0.198534	0.52208
0	H	0.809817	0.199116	0.498205
0	H	0.697234	0.694624	0.521495
0	H	0.306861	0.694963	0.498832
0	H	0.1728	0.407532	0.665931
0	H	0.83117	0.408104	0.354374
0	H	0.675663	0.904755	0.66472
0	H	0.328414	0.905244	0.355635
0	H	0.245621	0.320982	0.811318
0	H	0.758375	0.321008	0.208913
0	H	0.748702	0.816024	0.81093
0	H	0.25529	0.816095	0.209229
0	H	0.227094	0.0407423	0.92576
0	H	0.776946	0.0408779	0.0944962
0	H	0.729644	0.535057	0.924294
0	H	0.274462	0.535111	0.0960212
0	H	0.176336	0.105065	0.0647387
0	H	0.827724	0.10524	0.95541
0	H	0.678646	0.598808	0.0630379
0	H	0.325496	0.598903	0.957313
0	H	0.161807	0.739115	0.971934
0	H	0.842278	0.739228	0.0485027
0	H	0.664497	0.233428	0.971173
0	H	0.339622	0.233526	0.0492407
0	H	0.213784	0.670584	0.835338
0	H	0.790217	0.670701	0.184955
0	H	0.716589	0.165243	0.834584
0	H	0.287416	0.165376	0.185658
0	H	0.993362	0.411478	0.145467
0	H	0.010753	0.41135	0.875008
0	H	0.496082	0.907529	0.146116
0	H	0.508044	0.907513	0.874256
0	H	0.907322	0.29632	0.162023
0	H	0.0967877	0.296229	0.858438
0	H	0.40987	0.79431	0.162236
0	H	0.594253	0.79433	0.858049
0	H	0.887253	0.928302	0.160453
0	H	0.116856	0.928144	0.859944
0	H	0.389415	0.426365	0.161325
0	H	0.614699	0.426365	0.858808
0	H	0.953351	0.67074	0.14333
0	H	0.0507354	0.670605	0.876814
0	H	0.455192	0.167747	0.144354
0	H	0.548943	0.167734	0.875784
0	H	0.039243	0.784432	0.13044
0	H	0.96482	0.784312	0.889684
0	H	0.541215	0.279423	0.131349
0	H	0.462903	0.279404	0.888862
0	H	0.183883	0.870609	0.710504
0	H	0.820305	0.871258	0.310006
0	H	0.686335	0.370029	0.708092
0	H	0.317779	0.370439	0.312319
0	H	0.129631	0.723352	0.715788
0	H	0.874472	0.723713	0.304544
0	H	0.632254	0.22205	0.713418
0	H	0.371905	0.222567	0.307085
0	H	0.126786	0.943643	0.638524
0	H	0.877469	0.943673	0.381916
0	H	0.629348	0.440451	0.635079
0	H	0.37477	0.440947	0.385477
0	H	0.110351	0.143056	0.39535
0	H	0.893812	0.144497	0.624908
0	H	0.613846	0.638179	0.395377
0	H	0.390351	0.639131	0.624896
0	H	0.0666249	0.31319	0.329366
0	H	0.937607	0.31397	0.691206
0	H	0.570214	0.809628	0.330048
0	H	0.434023	0.810035	0.690431
0	H	0.0556252	0.0483676	0.325441
0	H	0.948467	0.0489423	0.694726
0	H	0.558737	0.544959	0.326275
0	H	0.445409	0.54541	0.693961
0	H	0.0878171	0.074891	0.0659407
0	H	0.91624	0.0743332	0.954209
0	H	0.589946	0.567974	0.066285
0	H	0.414141	0.567534	0.953865
0	H	0.128715	0.98881	0.229213
0	H	0.87538	0.989318	0.790831
0	H	0.631429	0.48332	0.228923
0	H	0.372705	0.483951	0.791191
