#******************************************
#
# CIF file created by Zeo++
# Zeo++ is an open source package to
# analyze microporous materials
#
#*******************************************

_cell_length_a		17.7411(0)
_cell_length_b		17.9934(0)
_cell_length_c		6.00984(0)
_cell_angle_alpha		90(0)
_cell_angle_beta		90(0)
_cell_angle_gamma		118.001(0)

_symmetry_space_group_name_H-M		'P1'
_symmetry_Int_Tables_number		1
_symmetry_cell_setting		Monoclinic

loop_
_symmetry_equiv_pos_as_xyz
'+x,+y,+z'

loop_
_atom_site_label
_atom_site_type_symbol
_atom_site_fract_x
_atom_site_fract_y
_atom_site_fract_z
0	O	0.371718	0.927923	0.288345
0	O	0.0756091	0.452744	0.96047
0	O	0.553183	0.634624	0.630792
0	O	0.636002	0.0886787	0.783341
0	O	0.931761	0.568842	0.458625
0	O	0.451443	0.379619	0.139536
0	O	0.256951	0.729723	0.894481
0	O	0.250045	0.49934	0.561898
0	O	0.519979	0.780908	0.223189
0	O	0.771917	0.256712	0.39144
0	O	0.756195	0.524832	0.058005
0	O	0.546863	0.263306	0.733961
0	H	0.195878	0.687285	0.884701
0	H	0.302496	0.496069	0.512612
0	H	0.520259	0.83608	0.203216
0	H	0.822726	0.310133	0.342881
0	H	0.701874	0.525138	0.0135251
0	H	0.525102	0.201289	0.726036
0	O	0.145918	0.661242	0.567141
0	O	0.351268	0.49779	0.24385
0	O	0.51904	0.875284	0.889767
0	O	0.863589	0.358763	0.0728654
0	O	0.654534	0.519782	0.740377
0	O	0.489115	0.144205	0.383466
0	O	0.106352	0.628278	0.215386
0	O	0.382738	0.487391	0.893587
0	O	0.526581	0.910243	0.533434
0	O	0.901752	0.392552	0.722148
0	O	0.621008	0.527763	0.390372
0	O	0.480198	0.10913	0.0266128
0	N	0.461217	0.0117615	0.645471
0	N	0.993768	0.468668	0.32823
0	N	0.54593	0.545554	0.999398
0	N	0.544362	0.00673856	0.145818
0	N	0.0137075	0.553151	0.825023
0	N	0.458361	0.468091	0.505105
0	H	0.512198	0.996918	0.620967
0	H	0.011994	0.533851	0.305535
0	H	0.481214	0.498059	0.981944
0	H	0.495029	0.023879	0.122512
0	H	0.996438	0.488144	0.802315
0	H	0.522165	0.517452	0.484815
0	H	0.456201	0.0441406	0.503049
0	H	0.958467	0.433417	0.187655
0	H	0.581031	0.545508	0.856064
0	H	0.546993	0.972952	0.00335659
0	H	0.048946	0.589082	0.685361
0	H	0.422205	0.4662	0.36216
0	H	0.476007	0.0533031	0.779254
0	H	0.952972	0.445028	0.465683
0	H	0.572802	0.530388	0.135354
0	H	0.528577	0.965608	0.281319
0	H	0.0541737	0.576683	0.962862
0	H	0.430395	0.482239	0.640537
0	N	0.283103	0.805933	0.474585
0	N	0.203796	0.499321	0.141991
0	N	0.519901	0.728671	0.807917
0	N	0.724171	0.211141	0.971359
0	N	0.803661	0.523782	0.639715
0	N	0.492105	0.290455	0.310834
0	H	0.261795	0.774756	0.628457
0	H	0.235532	0.51223	0.298198
0	H	0.510822	0.752751	0.962251
0	H	0.744567	0.239538	0.13086
0	H	0.771615	0.51123	0.795944
0	H	0.50485	0.266733	0.456566
0	C	0.379817	0.930779	0.690066
0	C	0.0742904	0.460816	0.363396
0	C	0.548407	0.630149	0.0335971
0	C	0.628601	0.0852745	0.185591
0	C	0.932383	0.559379	0.861245
0	C	0.460916	0.385849	0.541743
0	H	0.398035	0.887915	0.789802
0	H	0.118532	0.515384	0.472982
0	H	0.489898	0.618569	0.135087
0	H	0.614717	0.12944	0.292187
0	H	0.888237	0.503128	0.966496
0	H	0.52197	0.401062	0.636659
0	C	0.316296	0.946369	0.827767
0	C	0.0563763	0.378915	0.481747
0	C	0.627734	0.690348	0.163995
0	C	0.691021	0.0643139	0.312071
0	C	0.948395	0.639331	0.98636
0	C	0.385599	0.323911	0.680968
0	H	0.261058	0.884809	0.870772
0	H	0.118925	0.382209	0.525919
0	H	0.624744	0.75008	0.194253
0	H	0.748188	0.124417	0.358715
0	H	0.885574	0.637205	0.0198306
0	H	0.394703	0.268187	0.719163
0	H	0.346044	0.972031	0.994983
0	H	0.0274175	0.378282	0.648626
0	H	0.62289	0.663555	0.336257
0	H	0.662208	0.037075	0.478319
0	H	0.972443	0.636209	0.157878
0	H	0.389541	0.353191	0.849876
0	C	0.285144	0.00491471	0.720222
0	C	0.999961	0.297014	0.353525
0	C	0.7148	0.710092	0.0611793
0	C	0.718345	0.00571119	0.188242
0	C	0.00979681	0.7234	0.874649
0	C	0.295989	0.295459	0.581721
0	H	0.338544	0.0550245	0.622257
0	H	0.95169	0.306029	0.25234
0	H	0.713433	0.649954	0.00581812
0	H	0.666282	0.964378	0.0709719
0	H	0.0653544	0.718207	0.802147
0	H	0.294581	0.350145	0.496535
0	C	0.259404	0.0480903	0.903194
0	C	0.951321	0.224794	0.517863
0	C	0.784355	0.749848	0.24012
0	C	0.732415	0.948489	0.353784
0	C	0.0441664	0.793138	0.051748
0	C	0.229981	0.266587	0.770626
0	H	0.240176	0.0927366	0.832318
0	H	0.916848	0.164412	0.430753
0	H	0.846347	0.760048	0.176326
0	H	0.757569	0.910639	0.269953
0	H	0.0923337	0.852773	0.981682
0	H	0.166217	0.250599	0.707474
0	H	0.31256	0.0829769	0.0179291
0	H	0.90327	0.234622	0.611412
0	H	0.769585	0.70947	0.387294
0	H	0.672097	0.904213	0.434202
0	H	0.0736567	0.776826	0.19071
0	H	0.246599	0.316041	0.896215
0	H	0.205781	0.00256865	0.00246019
0	H	0.994077	0.218319	0.63859
0	H	0.791677	0.810931	0.29509
0	H	0.777603	0.98463	0.48512
0	H	0.993247	0.80427	0.121422
0	H	0.225459	0.210763	0.855748
0	C	0.21032	0.956656	0.560803
0	C	0.0529029	0.273519	0.193826
0	C	0.736841	0.769048	0.860005
0	C	0.799452	0.0564136	0.0505047
0	C	0.966355	0.746591	0.686193
0	C	0.272353	0.224664	0.410811
0	H	0.18303	0.996607	0.502376
0	H	0.0134745	0.212076	0.116716
0	H	0.803655	0.792749	0.810296
0	H	0.820245	0.0147872	0.968444
0	H	0.00533174	0.812015	0.633159
0	H	0.205361	0.198617	0.360268
0	H	0.158709	0.901327	0.640341
0	H	0.105757	0.270042	0.278896
0	H	0.727607	0.823972	0.895249
0	H	0.852617	0.100605	0.153995
0	H	0.904063	0.739688	0.73632
0	H	0.281057	0.172429	0.476809
0	H	0.230367	0.935101	0.412458
0	H	0.0796773	0.319001	0.0574659
0	H	0.697938	0.736871	0.714274
0	H	0.789099	0.0928863	0.919328
0	H	0.956914	0.707269	0.538577
0	H	0.310641	0.247268	0.258846
0	C	0.343876	0.888816	0.463675
0	C	0.116828	0.469124	0.135107
0	C	0.542196	0.665137	0.804107
0	C	0.664142	0.127576	0.958429
0	C	0.890322	0.552689	0.6331
0	C	0.466284	0.351308	0.311555
0	C	0.289183	0.740917	0.117121
0	C	0.263379	0.547099	0.762424
0	C	0.475461	0.738439	0.421118
0	C	0.732462	0.267004	0.58885
0	C	0.747704	0.478108	0.257689
0	C	0.564546	0.292966	0.959742
0	H	0.353589	0.796131	0.100509
0	H	0.213235	0.567455	0.756692
0	H	0.46695	0.673571	0.400462
0	H	0.666315	0.214243	0.579843
0	H	0.801708	0.463188	0.248055
0	H	0.57774	0.359494	0.944162
0	H	0.29503	0.684478	0.164814
0	H	0.327044	0.602649	0.763526
0	H	0.413023	0.737489	0.432306
0	H	0.731455	0.327769	0.588195
0	H	0.686445	0.41969	0.26098
0	H	0.622494	0.290169	0.0158565
0	C	0.232472	0.758767	0.279218
0	C	0.249249	0.485314	0.954713
0	C	0.5354	0.784819	0.615542
0	C	0.782122	0.256794	0.785931
0	C	0.758269	0.537802	0.452319
0	C	0.486772	0.241656	0.108688
0	H	0.206577	0.796875	0.18888
0	H	0.20977	0.419676	0.884755
0	H	0.603509	0.809748	0.552909
0	H	0.815558	0.220087	0.722297
0	H	0.795974	0.604406	0.387253
0	H	0.427012	0.227238	0.011907
0	C	0.155158	0.676517	0.36234
0	C	0.333735	0.490462	0.039526
0	C	0.526419	0.862832	0.687354
0	C	0.854339	0.342417	0.86782
0	C	0.671729	0.527914	0.535737
0	C	0.483901	0.157771	0.181071
