#******************************************
#
# CIF file created by Zeo++
# Zeo++ is an open source package to
# analyze microporous materials
#
#*******************************************

_cell_length_a		16.6639(0)
_cell_length_b		10.3279(0)
_cell_length_c		20.1533(0)
_cell_angle_alpha		90(0)
_cell_angle_beta		121.028(0)
_cell_angle_gamma		90(0)

_symmetry_space_group_name_H-M		'P1'
_symmetry_Int_Tables_number		1
_symmetry_cell_setting		Monoclinic

loop_
_symmetry_equiv_pos_as_xyz
'+x,+y,+z'

loop_
_atom_site_label
_atom_site_type_symbol
_atom_site_fract_x
_atom_site_fract_y
_atom_site_fract_z
0	C	0.829977	0.935552	0.670016
0	C	0.155644	0.430298	0.307807
0	C	0.928731	0.996766	0.698544
0	C	0.0561876	0.489174	0.279206
0	C	0.0834196	0.0436514	0.828103
0	C	0.900996	0.531701	0.149472
0	C	0.138275	0.00291823	0.788261
0	C	0.846148	0.490963	0.189377
0	C	0.214073	0.788592	0.833261
0	C	0.771969	0.275602	0.144616
0	C	0.216842	0.650626	0.804525
0	C	0.769983	0.137907	0.173979
0	C	0.119543	0.584252	0.772636
0	C	0.868065	0.0739214	0.207678
0	C	0.965032	0.51597	0.654007
0	C	0.0223272	0.00991379	0.325698
0	C	0.904949	0.583066	0.682915
0	C	0.0815251	0.0776307	0.295961
0	C	0.839342	0.79024	0.691901
0	C	0.147618	0.284708	0.286611
0	C	0.762135	0.961833	0.585074
0	C	0.223564	0.45746	0.392633
0	C	0.780006	0.122073	0.715641
0	C	0.201165	0.62082	0.261626
0	C	0.765505	0.145504	0.783222
0	C	0.216091	0.64927	0.194685
0	C	0.73267	0.286162	0.782853
0	C	0.25147	0.789653	0.19832
0	C	0.773144	0.314653	0.869506
0	C	0.212367	0.823066	0.112331
0	C	0.861637	0.231402	0.910097
0	C	0.122807	0.742363	0.0693093
0	C	0.614242	0.559506	0.735229
0	C	0.36511	0.059449	0.239638
0	C	0.45361	0.373588	0.701481
0	C	0.530915	0.881247	0.278247
0	C	0.6105	0.399894	0.575799
0	C	0.37546	0.916208	0.404248
0	C	0.468605	0.268734	0.54546
0	C	0.516969	0.782315	0.435276
0	C	0.459607	0.511931	0.541022
0	C	0.525999	0.0254974	0.436323
0	C	0.522971	0.394423	0.583437
0	C	0.462366	0.907266	0.39588
0	C	0.95974	0.401429	0.890524
0	C	0.0249433	0.91634	0.0872903
0	C	0.127995	0.434256	0.998633
0	C	0.855435	0.942635	0.980481
0	C	0.114099	0.326516	0.0395532
0	C	0.870878	0.837901	0.938816
0	C	0.0299085	0.266621	0.00846266
0	C	0.95564	0.779612	0.969981
0	C	0.195443	0.289707	0.116417
0	C	0.79007	0.802916	0.861298
0	C	0.291514	0.566888	0.868923
0	C	0.69613	0.0532015	0.109721
0	C	0.264002	0.571458	0.713849
0	C	0.721466	0.0607682	0.264363
0	C	0.24961	0.617751	0.636729
0	C	0.734524	0.108153	0.340925
0	C	0.261968	0.765215	0.62953
0	C	0.725281	0.25607	0.349643
0	C	0.200526	0.786936	0.541269
0	C	0.786408	0.27503	0.438269
0	C	0.123875	0.683775	0.513629
0	C	0.860989	0.16891	0.465268
0	C	0.368519	0.059533	0.626642
0	C	0.616169	0.558435	0.350869
0	C	0.525414	0.87356	0.66502
0	C	0.46336	0.368706	0.315673
0	C	0.519799	0.810704	0.83814
0	C	0.465553	0.304203	0.141501
0	C	0.398109	0.982227	0.805187
0	C	0.588453	0.473692	0.173584
0	C	0.556538	0.0424045	0.826454
0	C	0.430965	0.537208	0.153356
0	C	0.478918	0.938629	0.793623
0	C	0.507705	0.432047	0.185714
0	C	0.0184025	0.818376	0.544739
0	C	0.968211	0.300219	0.435028
0	C	0.844699	0.824942	0.446001
0	C	0.141271	0.308556	0.535348
0	C	0.864885	0.747327	0.395037
0	C	0.120387	0.229257	0.585259
0	C	0.952576	0.702459	0.420162
0	C	0.0325382	0.184412	0.55954
0	C	0.786072	0.718455	0.315218
0	C	0.198768	0.198862	0.664994
0	C	0.973042	0.371438	0.673928
0	C	0.0154457	0.865659	0.305338
0	C	0.921645	0.534769	0.566549
0	C	0.0665906	0.0298306	0.413039
0	C	0.0948344	0.189875	0.844284
0	C	0.891695	0.67851	0.134555
0	C	0.117925	0.972036	0.905318
0	C	0.865212	0.460368	0.0719857
0	N	0.900968	0.725512	0.668684
0	N	0.0853465	0.220215	0.309428
0	N	0.980882	0.014271	0.777499
0	N	0.00306677	0.499868	0.199787
0	N	0.13031	0.860871	0.773095
0	N	0.854959	0.348967	0.204865
0	N	0.0621433	0.573204	0.693763
0	N	0.924317	0.0639546	0.286767
0	N	0.950808	0.304805	0.937006
0	N	0.0342591	0.818314	0.0415822
0	N	0.0468169	0.466498	0.925042
0	N	0.936968	0.979522	0.0527195
0	N	0.0302318	0.737317	0.492747
0	N	0.955509	0.219427	0.486686
0	N	0.925912	0.857879	0.51945
0	N	0.060551	0.342344	0.461786
0	O	0.952892	0.0268415	0.652231
0	O	0.0320973	0.522405	0.325019
0	O	0.100782	0.542051	0.820159
0	O	0.892883	0.0316081	0.163846
0	O	0.795609	0.984224	0.718274
0	O	0.188759	0.481692	0.259109
0	O	0.635274	0.289253	0.740621
0	O	0.349072	0.790115	0.241452
0	O	0.855424	0.134262	0.85604
0	O	0.12583	0.644331	0.121752
0	O	0.896035	0.433014	0.826415
0	O	0.089575	0.950992	0.150289
0	O	0.197726	0.499694	0.0201412
0	O	0.78405	0.00349674	0.960439
0	O	0.235084	0.677681	0.743578
0	O	0.750157	0.166231	0.234033
0	O	0.354974	0.794326	0.655646
0	O	0.633244	0.290812	0.323656
0	O	0.151349	0.594106	0.577178
0	O	0.831984	0.0803648	0.401024
0	O	0.0847902	0.855369	0.606115
0	O	0.902525	0.334411	0.372533
0	O	0.768777	0.860414	0.434131
0	O	0.217304	0.345585	0.548235
0	Si	0.555555	0.40382	0.689729
0	Si	0.427973	0.908336	0.28916
0	Si	0.43127	0.914922	0.685032
0	Si	0.556584	0.410249	0.294576
0	H	0.107255	0.0542621	0.731417
0	H	0.876843	0.542934	0.246057
0	H	0.211697	0.0372055	0.823968
0	H	0.772541	0.524397	0.153522
0	H	0.20824	0.780785	0.885808
0	H	0.778227	0.267586	0.09227
0	H	0.28169	0.837602	0.850628
0	H	0.70391	0.323696	0.126721
0	H	0.832674	0.54338	0.650294
0	H	0.153839	0.0380802	0.32835
0	H	0.933188	0.55786	0.745017
0	H	0.0528406	0.0517776	0.233824
0	H	0.864027	0.781309	0.754717
0	H	0.123749	0.274776	0.223989
0	H	0.768526	0.74499	0.660321
0	H	0.218473	0.239884	0.318869
0	H	0.689207	0.949061	0.570342
0	H	0.296361	0.442257	0.407482
0	H	0.772654	0.89313	0.548031
0	H	0.212035	0.39066	0.429995
0	H	0.769264	0.0588244	0.567066
0	H	0.217483	0.555699	0.409807
0	H	0.715798	0.146073	0.659746
0	H	0.264397	0.646126	0.317715
0	H	0.840454	0.176067	0.721581
0	H	0.139008	0.671283	0.255154
0	H	0.719169	0.0709835	0.786351
0	H	0.260913	0.574733	0.189478
0	H	0.760315	0.356063	0.756729
0	H	0.224084	0.858203	0.225177
0	H	0.722618	0.284783	0.88683
0	H	0.263191	0.794709	0.0950267
0	H	0.786132	0.418812	0.882489
0	H	0.200733	0.928059	0.101618
0	H	0.868691	0.176975	0.96084
0	H	0.116452	0.687754	0.0186867
0	H	0.679588	0.572416	0.735053
0	H	0.298866	0.0694724	0.23874
0	H	0.630291	0.564792	0.795366
0	H	0.350207	0.0619845	0.179793
0	H	0.567057	0.641652	0.703157
0	H	0.409696	0.144306	0.270519
0	H	0.408583	0.294807	0.66255
0	H	0.577264	0.803991	0.317415
0	H	0.410092	0.461425	0.686073
0	H	0.572273	0.971496	0.293828
0	H	0.475818	0.345543	0.761143
0	H	0.510034	0.854285	0.21876
0	H	0.651823	0.487951	0.601453
0	H	0.335535	0.00542788	0.378879
0	H	0.589893	0.399893	0.514484
0	H	0.396447	0.916633	0.465637
0	H	0.6566	0.31627	0.602809
0	H	0.327891	0.834128	0.377203
0	H	0.399498	0.267945	0.539988
0	H	0.585975	0.780663	0.440535
0	H	0.506268	0.18194	0.578112
0	H	0.479251	0.694962	0.403469
0	H	0.456081	0.257754	0.486699
0	H	0.529591	0.773357	0.494136
0	H	0.397103	0.514199	0.546185
0	H	0.588087	0.0264549	0.430607
0	H	0.435047	0.508304	0.478963
0	H	0.551163	0.0248279	0.498526
0	H	0.496224	0.604555	0.562712
0	H	0.488965	0.117374	0.4133
0	H	0.0184748	0.185794	0.0382017
0	H	0.967982	0.699662	0.940197
0	H	0.262528	0.318611	0.12218
0	H	0.722863	0.832202	0.855217
0	H	0.199037	0.18514	0.1275
0	H	0.785815	0.698694	0.849326
0	H	0.19245	0.339638	0.163738
0	H	0.794145	0.854237	0.814822
0	H	0.293914	0.468947	0.849205
0	H	0.692993	0.95592	0.129699
0	H	0.276433	0.554637	0.915943
0	H	0.711898	0.039873	0.0631312
0	H	0.361423	0.609576	0.894009
0	H	0.626232	0.0965965	0.0836991
0	H	0.222083	0.483716	0.706307
0	H	0.76452	0.973649	0.273166
0	H	0.339132	0.553262	0.75573
0	H	0.646745	0.0408069	0.222139
0	H	0.292618	0.557595	0.620142
0	H	0.689596	0.0494516	0.356294
0	H	0.238323	0.823933	0.66309
0	H	0.750631	0.313643	0.316887
0	H	0.243121	0.775074	0.513929
0	H	0.742932	0.26401	0.464882
0	H	0.172906	0.887437	0.527588
0	H	0.81592	0.374245	0.453453
0	H	0.114841	0.623746	0.463829
0	H	0.868614	0.108788	0.514596
0	H	0.357035	0.0529322	0.567875
0	H	0.630343	0.550378	0.410449
0	H	0.412023	0.146967	0.654274
0	H	0.569738	0.643509	0.323969
0	H	0.300108	0.0750146	0.6209
0	H	0.6828	0.578899	0.354388
0	H	0.564261	0.785822	0.696058
0	H	0.421794	0.283942	0.282379
0	H	0.575262	0.954979	0.683891
0	H	0.415557	0.452114	0.299607
0	H	0.49687	0.857978	0.602795
0	H	0.492561	0.348383	0.377515
0	H	0.578424	0.77577	0.832912
0	H	0.407042	0.270558	0.14728
0	H	0.466902	0.733781	0.817275
0	H	0.517814	0.226435	0.162122
0	H	0.546552	0.824104	0.90008
0	H	0.438284	0.317036	0.0794407
0	H	0.366705	0.0733757	0.775303
0	H	0.618355	0.567151	0.20088
0	H	0.423511	0.997535	0.866714
0	H	0.563379	0.483671	0.11176
0	H	0.342351	0.908912	0.78398
0	H	0.645238	0.401751	0.197172
0	H	0.535732	0.131298	0.791662
0	H	0.45276	0.626118	0.188191
0	H	0.621471	0.00805963	0.830745
0	H	0.366094	0.503856	0.149577
0	H	0.575993	0.0694086	0.885555
0	H	0.411244	0.564177	0.0942174
0	H	0.968035	0.637927	0.384053
0	H	0.0168121	0.119426	0.595356
0	H	0.71879	0.755232	0.305749
0	H	0.266369	0.235212	0.674954
0	H	0.777566	0.613471	0.303883
0	H	0.206428	0.0934708	0.675499
0	H	0.797731	0.762626	0.271196
0	H	0.187246	0.242518	0.709161
0	H	0.00923043	0.356681	0.737398
0	H	0.980168	0.851689	0.241841
0	H	0.0134701	0.31961	0.65342
0	H	0.974175	0.812674	0.324649
0	H	0.904794	0.324221	0.64893
0	H	0.0840714	0.81955	0.330906
0	H	0.895962	0.634394	0.549509
0	H	0.0943352	0.128691	0.42947
0	H	0.860536	0.471708	0.533186
0	H	0.126967	0.96576	0.446523
0	H	0.971107	0.513813	0.547411
0	H	0.0175012	0.0125735	0.432977
0	H	0.0675964	0.247542	0.79092
0	H	0.919782	0.735148	0.188424
0	H	0.168042	0.21773	0.882622
0	H	0.818955	0.708574	0.0963859
0	H	0.0562539	0.22105	0.872021
0	H	0.930874	0.709495	0.107197
0	H	0.110824	0.866642	0.896621
0	H	0.870964	0.354752	0.0804195
0	H	0.0788904	0.000894423	0.933118
0	H	0.904259	0.487433	0.0439421
0	H	0.191866	0.99314	0.946352
0	H	0.791458	0.483058	0.0313178
0	H	0.968094	0.763175	0.700507
0	H	0.0181857	0.257539	0.276791
0	H	0.94658	0.000363502	0.8076
0	H	0.037012	0.484114	0.169655
0	H	0.121992	0.845301	0.718922
0	H	0.863134	0.333211	0.258958
0	H	0.0836847	0.614285	0.658546
0	H	0.902309	0.104497	0.321618
0	H	0.0561115	0.526955	0.887477
0	H	0.924915	0.0381242	0.0896551
0	H	0.916495	0.907041	0.560729
0	H	0.0703094	0.39312	0.421322
