#******************************************
#
# CIF file created by Zeo++
# Zeo++ is an open source package to
# analyze microporous materials
#
#*******************************************

_cell_length_a		18.7037(0)
_cell_length_b		18.6334(0)
_cell_length_c		9.56178(0)
_cell_angle_alpha		90(0)
_cell_angle_beta		90(0)
_cell_angle_gamma		90(0)

_symmetry_space_group_name_H-M		'P1'
_symmetry_Int_Tables_number		1
_symmetry_cell_setting		Monoclinic

loop_
_symmetry_equiv_pos_as_xyz
'+x,+y,+z'

loop_
_atom_site_label
_atom_site_type_symbol
_atom_site_fract_x
_atom_site_fract_y
_atom_site_fract_z
0	C	0.792108	0.994836	0.698335
0	C	0.166351	0.96505	0.699539
0	C	0.964466	0.797003	0.205295
0	C	0.992672	0.164513	0.205311
0	C	0.725231	0.96575	0.633149
0	C	0.233084	0.994083	0.6336
0	C	0.995371	0.73002	0.1428
0	C	0.96175	0.231333	0.142239
0	C	0.691883	0.996835	0.524916
0	C	0.266051	0.962995	0.524956
0	C	0.965925	0.695193	0.0345269
0	C	0.991254	0.265946	0.0337595
0	C	0.720007	0.063665	0.455659
0	C	0.237672	0.89616	0.456053
0	C	0.899197	0.721465	0.962848
0	C	0.058057	0.239566	0.962499
0	C	0.776302	0.102732	0.544276
0	C	0.181537	0.857233	0.54534
0	C	0.858381	0.777369	0.049675
0	C	0.0987875	0.18369	0.0494951
0	C	0.831187	0.0489911	0.603143
0	C	0.126887	0.911148	0.604449
0	C	0.910368	0.834232	0.107472
0	C	0.046682	0.12704	0.107604
0	C	0.894749	0.0874995	0.679759
0	C	0.0630903	0.872957	0.680826
0	C	0.870305	0.897948	0.18079
0	C	0.0865648	0.0632877	0.181206
0	C	0.937765	0.132395	0.57156
0	C	0.0200304	0.828257	0.572409
0	C	0.825487	0.938728	0.0692516
0	C	0.131422	0.0222056	0.0701306
0	C	0.0100592	0.159526	0.626042
0	C	0.947529	0.801469	0.626417
0	C	0.797017	0.0115537	0.119037
0	C	0.159808	0.949473	0.120753
0	C	0.0351836	0.226112	0.553453
0	C	0.922194	0.735066	0.553486
0	C	0.728975	0.0332046	0.048047
0	C	0.227536	0.927364	0.0491233
0	C	0.102417	0.251298	0.555013
0	C	0.854922	0.710014	0.555012
0	C	0.701538	0.0997978	0.0467927
0	C	0.254354	0.86055	0.0468591
0	C	0.121197	0.320759	0.484749
0	C	0.835905	0.640801	0.484026
0	C	0.630754	0.115	0.979148
0	C	0.324862	0.844891	0.978486
0	C	0.624807	0.966929	0.462339
0	C	0.332889	0.992933	0.461385
0	C	0.997686	0.628221	0.97406
0	C	0.959445	0.332714	0.972585
0	C	0.868081	0.135143	0.800263
0	C	0.0893175	0.825309	0.801623
0	C	0.822417	0.871825	0.301275
0	C	0.134367	0.0893799	0.301867
0	C	0.164057	0.215288	0.62612
0	C	0.793366	0.745853	0.626736
0	C	0.73626	0.164181	0.111462
0	C	0.219215	0.796319	0.111196
0	N	0.943333	0.0325222	0.743988
0	N	0.0145495	0.92815	0.744544
0	N	0.923923	0.948436	0.244424
0	N	0.0327296	0.0129669	0.244575
0	C	0.479864	0.6591	0.868729
0	C	0.476704	0.301045	0.868601
0	C	0.30014	0.479769	0.36956
0	C	0.656369	0.48024	0.369859
0	C	0.443779	0.722873	0.804805
0	C	0.51269	0.237121	0.804973
0	C	0.236128	0.443603	0.307067
0	C	0.72042	0.51637	0.307408
0	C	0.473215	0.762572	0.703114
0	C	0.483254	0.197381	0.703445
0	C	0.197399	0.471897	0.202831
0	C	0.759072	0.488087	0.203038
0	C	0.54502	0.7454	0.640372
0	C	0.411529	0.214631	0.6404
0	C	0.216277	0.542461	0.135752
0	C	0.740149	0.417536	0.135961
0	C	0.587646	0.689144	0.723166
0	C	0.368874	0.270844	0.723223
0	C	0.268949	0.586979	0.222999
0	C	0.687476	0.373044	0.223241
0	C	0.539182	0.627822	0.774675
0	C	0.417309	0.332221	0.7746
0	C	0.33082	0.53953	0.275303
0	C	0.625636	0.420531	0.275551
0	C	0.582508	0.5671	0.850987
0	C	0.373933	0.392918	0.850903
0	C	0.390484	0.584285	0.350959
0	C	0.565917	0.375815	0.351099
0	C	0.630402	0.527565	0.742739
0	C	0.326041	0.432411	0.74259
0	C	0.427785	0.634036	0.242758
0	C	0.528629	0.326091	0.242838
0	C	0.664778	0.458848	0.8
0	C	0.291607	0.501117	0.799765
0	C	0.491141	0.675619	0.30419
0	C	0.465193	0.284574	0.304121
0	C	0.722284	0.429174	0.707731
0	C	0.234011	0.530649	0.707519
0	C	0.522621	0.729292	0.205227
0	C	0.433765	0.230874	0.205152
0	C	0.743581	0.360325	0.706561
0	C	0.212423	0.599396	0.706457
0	C	0.591964	0.74797	0.203428
0	C	0.364449	0.212108	0.203398
0	C	0.800002	0.334763	0.606736
0	C	0.155915	0.624755	0.606613
0	C	0.620315	0.802279	0.101867
0	C	0.336155	0.157773	0.101831
0	C	0.436287	0.826578	0.641668
0	C	0.520044	0.133186	0.642376
0	C	0.13357	0.434832	0.141786
0	C	0.822859	0.525157	0.141817
0	C	0.626977	0.597018	0.972851
0	C	0.329443	0.362969	0.9727
0	C	0.359912	0.627653	0.473845
0	C	0.596402	0.332407	0.474012
0	C	0.714332	0.303363	0.801207
0	C	0.241374	0.656476	0.801204
0	C	0.646959	0.717618	0.300851
0	C	0.309425	0.242312	0.300933
0	N	0.531695	0.513651	0.913921
0	N	0.424703	0.4464	0.913901
0	N	0.445563	0.534351	0.411783
0	N	0.510847	0.425773	0.411861
0	H	0.828457	0.949975	0.725124
0	H	0.130189	0.00991113	0.727085
0	H	0.00819736	0.834664	0.23232
0	H	0.94894	0.126917	0.232767
0	H	0.777817	0.0209625	0.799306
0	H	0.180902	0.938732	0.800137
0	H	0.937906	0.782936	0.305944
0	H	0.0192933	0.178814	0.30578
0	H	0.704712	0.917186	0.681829
0	H	0.253808	0.0426201	0.682087
0	H	0.0437553	0.710839	0.193708
0	H	0.913326	0.250558	0.19279
0	H	0.675595	0.100708	0.430535
0	H	0.281989	0.859047	0.430525
0	H	0.863566	0.675882	0.937365
0	H	0.0937262	0.285114	0.937011
0	H	0.744018	0.0481757	0.352557
0	H	0.213416	0.91168	0.353189
0	H	0.914771	0.745443	0.859676
0	H	0.0425709	0.215508	0.859332
0	H	0.749712	0.131338	0.631373
0	H	0.208295	0.828658	0.632265
0	H	0.830623	0.75045	0.137569
0	H	0.126669	0.210616	0.137198
0	H	0.803026	0.144178	0.480119
0	H	0.154646	0.815742	0.481589
0	H	0.816413	0.802396	0.984462
0	H	0.140627	0.15842	0.98431
0	H	0.854956	0.0183247	0.513485
0	H	0.103256	0.941988	0.514865
0	H	0.94086	0.857844	0.0174372
0	H	0.0161024	0.10336	0.0177179
0	H	0.904002	0.17768	0.536555
0	H	0.0536238	0.782835	0.537592
0	H	0.780981	0.903597	0.0354988
0	H	0.176011	0.0571929	0.0361954
0	H	0.947281	0.0987624	0.477394
0	H	0.0107679	0.861942	0.478201
0	H	0.859084	0.947149	0.974884
0	H	0.0979019	0.0135769	0.975744
0	H	0.0499048	0.115586	0.616736
0	H	0.907885	0.845576	0.616953
0	H	0.839412	0.0525675	0.103986
0	H	0.117212	0.908534	0.106881
0	H	0.00678276	0.17106	0.741057
0	H	0.950561	0.789854	0.741392
0	H	0.787078	0.0103771	0.234744
0	H	0.170123	0.951039	0.236327
0	H	0.993272	0.255688	0.498815
0	H	0.963966	0.705516	0.498409
0	H	0.700283	0.989357	0.997184
0	H	0.256516	0.971121	0.998554
0	H	0.164943	0.314033	0.40892
0	H	0.791583	0.647719	0.409575
0	H	0.635532	0.15569	0.896301
0	H	0.319722	0.803881	0.896376
0	H	0.0760906	0.344538	0.427848
0	H	0.880695	0.617485	0.42546
0	H	0.606647	0.0672801	0.931225
0	H	0.348898	0.89235	0.929471
0	H	0.139093	0.360652	0.561825
0	H	0.818746	0.600493	0.560935
0	H	0.592291	0.135667	0.0562256
0	H	0.363524	0.824477	0.055428
0	H	0.630157	0.960034	0.348622
0	H	0.326865	0.000427914	0.347943
0	H	0.00745272	0.634229	0.861262
0	H	0.950186	0.326617	0.859664
0	H	0.610338	0.914461	0.50598
0	H	0.347864	0.0451127	0.505691
0	H	0.048822	0.613745	0.0226819
0	H	0.908031	0.346967	0.0202746
0	H	0.579343	0.00309113	0.479999
0	H	0.378324	0.956518	0.477184
0	H	0.961428	0.582326	0.987204
0	H	0.995423	0.378781	0.986238
0	H	0.832125	0.105751	0.871078
0	H	0.125242	0.854614	0.87259
0	H	0.851574	0.836571	0.373893
0	H	0.105143	0.124607	0.374454
0	H	0.912342	0.156386	0.863624
0	H	0.044887	0.804318	0.864741
0	H	0.800615	0.916708	0.362735
0	H	0.15618	0.0444681	0.363246
0	H	0.838352	0.181571	0.760869
0	H	0.118892	0.77875	0.762553
0	H	0.776531	0.841301	0.262233
0	H	0.180226	0.119967	0.262877
0	H	0.183415	0.247681	0.714286
0	H	0.773862	0.713033	0.714175
0	H	0.703636	0.185389	0.197597
0	H	0.251139	0.775513	0.198677
0	H	0.150512	0.162008	0.667386
0	H	0.807039	0.798857	0.669148
0	H	0.789618	0.152766	0.153901
0	H	0.165476	0.807782	0.151725
0	H	0.209148	0.208127	0.553792
0	H	0.748329	0.753534	0.554475
0	H	0.74245	0.207501	0.0342467
0	H	0.213752	0.75268	0.0344892
0	H	0.937431	0.024043	0.850302
0	H	0.0201665	0.936641	0.850906
0	H	0.932564	0.941887	0.350998
0	H	0.0241449	0.0191676	0.351234
0	H	0.439309	0.617431	0.892226
0	H	0.517307	0.342734	0.891714
0	H	0.341809	0.439026	0.391652
0	H	0.614726	0.521003	0.391977
0	H	0.503107	0.675153	0.971364
0	H	0.453546	0.285174	0.971429
0	H	0.284905	0.502878	0.472809
0	H	0.671578	0.457094	0.473087
0	H	0.391387	0.735538	0.848067
0	H	0.565022	0.224389	0.848498
0	H	0.2226	0.392029	0.35376
0	H	0.734027	0.567877	0.35423
0	H	0.5772	0.795071	0.630713
0	H	0.379325	0.164998	0.630427
0	H	0.167536	0.574204	0.114366
0	H	0.788868	0.385765	0.114533
0	H	0.536092	0.726099	0.531275
0	H	0.420603	0.234021	0.531383
0	H	0.240259	0.530642	0.030731
0	H	0.716148	0.429362	0.0309609
0	H	0.613859	0.715465	0.813438
0	H	0.342734	0.244498	0.813557
0	H	0.24042	0.611072	0.312946
0	H	0.715998	0.348947	0.313193
0	H	0.631007	0.667666	0.656581
0	H	0.325451	0.292265	0.656727
0	H	0.28956	0.63211	0.15959
0	H	0.666846	0.327909	0.159875
0	H	0.512781	0.602626	0.681468
0	H	0.443644	0.357424	0.681319
0	H	0.356478	0.5132	0.182405
0	H	0.600016	0.446899	0.182657
0	H	0.671694	0.565024	0.704239
0	H	0.28478	0.394916	0.704111
0	H	0.38784	0.671269	0.198051
0	H	0.568556	0.288801	0.198237
0	H	0.596911	0.513392	0.650737
0	H	0.359535	0.446583	0.650587
0	H	0.447138	0.600443	0.154399
0	H	0.509359	0.359686	0.154409
0	H	0.622133	0.418129	0.816885
0	H	0.334207	0.541902	0.816493
0	H	0.532565	0.636292	0.337972
0	H	0.423754	0.323928	0.337716
0	H	0.687573	0.468985	0.906446
0	H	0.268868	0.491003	0.90627
0	H	0.474969	0.704035	0.401901
0	H	0.48126	0.256186	0.401949
0	H	0.747309	0.468252	0.638107
0	H	0.209165	0.491502	0.637793
0	H	0.484676	0.753751	0.132879
0	H	0.471718	0.206479	0.132742
0	H	0.779832	0.290654	0.541521
0	H	0.176023	0.66877	0.541082
0	H	0.665121	0.780298	0.0413055
0	H	0.290861	0.179438	0.0422255
0	H	0.818082	0.377144	0.535163
0	H	0.137829	0.582248	0.535345
0	H	0.579842	0.820134	0.0263488
0	H	0.376453	0.140473	0.0254647
0	H	0.847288	0.314768	0.662567
0	H	0.108642	0.644807	0.662393
0	H	0.640053	0.850142	0.156731
0	H	0.317122	0.109598	0.156608
0	H	0.434526	0.823721	0.526953
0	H	0.52215	0.136063	0.527684
0	H	0.1369	0.432103	0.0272817
0	H	0.819184	0.528321	0.0273929
0	H	0.380836	0.83219	0.677896
0	H	0.575353	0.127295	0.679254
0	H	0.127286	0.37958	0.179802
0	H	0.829446	0.580236	0.180561
0	H	0.464325	0.876301	0.669934
0	H	0.491677	0.0835952	0.670249
0	H	0.0841681	0.463702	0.168126
0	H	0.872228	0.496003	0.167154
0	H	0.672786	0.627978	0.935494
0	H	0.283571	0.332124	0.935295
0	H	0.328117	0.673233	0.437445
0	H	0.62812	0.286762	0.437657
0	H	0.595113	0.632647	0.0403081
0	H	0.361259	0.32722	0.0400028
0	H	0.324993	0.594664	0.540598
0	H	0.631359	0.365346	0.54079
0	H	0.648488	0.554358	0.0403153
0	H	0.308009	0.405595	0.0403393
0	H	0.401987	0.649688	0.541759
0	H	0.554283	0.310443	0.541901
0	H	0.751183	0.293136	0.888563
0	H	0.203962	0.667241	0.887386
0	H	0.65939	0.755995	0.384549
0	H	0.296912	0.20376	0.384282
0	H	0.662334	0.318217	0.84653
0	H	0.292944	0.641471	0.848129
0	H	0.628979	0.667518	0.350836
0	H	0.327407	0.292285	0.351382
0	H	0.706605	0.252241	0.746135
0	H	0.249802	0.707346	0.745629
0	H	0.697141	0.705329	0.246474
0	H	0.259279	0.254756	0.246552
0	H	0.523534	0.518158	0.0208788
0	H	0.432861	0.441871	0.0208584
0	H	0.441408	0.526116	0.518848
0	H	0.51499	0.43404	0.518913
0	C	0.979123	0.980317	0.664824
0	C	0.978375	0.980667	0.164922
0	O	0.979411	0.980243	0.53515
0	O	0.978466	0.980731	0.0353467
0	C	0.478194	0.48004	0.834348
0	C	0.478206	0.480052	0.331913
0	O	0.47819	0.48005	0.704819
0	O	0.478223	0.480035	0.202366
