#******************************************
#
# CIF file created by Zeo++
# Zeo++ is an open source package to
# analyze microporous materials
#
#*******************************************

_cell_length_a		8.22736(0)
_cell_length_b		8.55691(0)
_cell_length_c		33.4769(0)
_cell_angle_alpha		90(0)
_cell_angle_beta		90(0)
_cell_angle_gamma		90(0)

_symmetry_space_group_name_H-M		'P1'
_symmetry_Int_Tables_number		1
_symmetry_cell_setting		Monoclinic

loop_
_symmetry_equiv_pos_as_xyz
'+x,+y,+z'

loop_
_atom_site_label
_atom_site_type_symbol
_atom_site_fract_x
_atom_site_fract_y
_atom_site_fract_z
0	Cl	0.454203	0.293592	0.806704
0	Cl	0.0238025	0.800661	0.301864
0	Cl	0.523074	0.789979	0.710742
0	Cl	0.962805	0.306992	0.206651
0	O	0.897806	0.278467	0.919635
0	O	0.57772	0.814469	0.416424
0	O	0.0851065	0.770457	0.595573
0	O	0.403475	0.326686	0.0914283
0	O	0.204146	0.00596052	0.75431
0	O	0.275275	0.0906489	0.249635
0	O	0.783687	0.49982	0.761208
0	O	0.706302	0.590516	0.255405
0	O	0.012241	0.84589	0.738765
0	O	0.464915	0.25352	0.23435
0	O	0.969072	0.333599	0.777289
0	O	0.520211	0.754687	0.272324
0	N	0.750086	0.915097	0.91761
0	N	0.722236	0.182138	0.416039
0	N	0.231976	0.402645	0.596148
0	N	0.253511	0.691032	0.093528
0	H	0.823588	0.987828	0.90239
0	H	0.649513	0.108483	0.400875
0	H	0.161076	0.47716	0.611536
0	H	0.327384	0.617693	0.108465
0	N	0.10974	0.899815	0.762397
0	N	0.368717	0.197346	0.257941
0	N	0.874547	0.390555	0.7534
0	N	0.614735	0.69974	0.248124
0	N	0.779701	0.490056	0.889779
0	N	0.696432	0.604305	0.38591
0	N	0.203499	0.979943	0.626443
0	N	0.284483	0.115675	0.121378
0	C	0.914466	0.408989	0.905053
0	C	0.56171	0.684053	0.401789
0	C	0.068819	0.90072	0.610271
0	C	0.419555	0.196253	0.106119
0	C	0.0797941	0.481208	0.898488
0	C	0.39705	0.609758	0.395489
0	C	0.904185	0.975296	0.616332
0	C	0.584517	0.123393	0.112807
0	H	0.173627	0.387874	0.898934
0	H	0.301705	0.701526	0.396531
0	H	0.808616	0.883769	0.615283
0	H	0.678781	0.216301	0.112358
0	H	0.110429	0.558987	0.92405
0	H	0.369145	0.53016	0.42086
0	H	0.876805	0.0544168	0.590838
0	H	0.614873	0.0454497	0.0872559
0	C	0.0803994	0.5693	0.858794
0	C	0.396527	0.523807	0.355439
0	C	0.902852	0.0621843	0.656254
0	C	0.584696	0.0352701	0.152526
0	H	0.0403277	0.486122	0.834623
0	H	0.436827	0.608222	0.33158
0	H	0.94262	0.978368	0.680326
0	H	0.544242	0.118258	0.176704
0	C	0.250001	0.63152	0.847896
0	C	0.22731	0.46217	0.344051
0	C	0.733454	0.124401	0.667353
0	C	0.754346	0.97328	0.163494
0	H	0.292285	0.718924	0.870082
0	H	0.18442	0.373943	0.365895
0	H	0.691398	0.212945	0.645464
0	H	0.797439	0.887194	0.141085
0	H	0.341487	0.536398	0.849261
0	H	0.135912	0.557353	0.345416
0	H	0.641698	0.0294743	0.665814
0	H	0.845276	0.0689316	0.162556
0	C	0.244849	0.702329	0.805853
0	C	0.233748	0.393027	0.301835
0	C	0.738985	0.193541	0.709609
0	C	0.749148	0.900537	0.205329
0	H	0.214577	0.610206	0.7836
0	H	0.264419	0.486057	0.27988
0	H	0.769278	0.10043	0.73158
0	H	0.718498	0.991602	0.227801
0	H	0.366728	0.74695	0.797317
0	H	0.112145	0.348814	0.293006
0	H	0.617333	0.237752	0.71827
0	H	0.871117	0.855989	0.213744
0	C	0.118393	0.834666	0.804844
0	C	0.360246	0.260716	0.30058
0	C	0.865511	0.325719	0.710876
0	C	0.62313	0.767851	0.205926
0	H	0.161373	0.933217	0.824489
0	H	0.317217	0.161402	0.319938
0	H	0.822514	0.424667	0.691369
0	H	0.666328	0.67083	0.185849
0	C	0.947912	0.778339	0.818278
0	C	0.530559	0.316698	0.314326
0	C	0.0360059	0.269761	0.697234
0	C	0.452543	0.824808	0.192706
0	H	0.908635	0.68177	0.797241
0	H	0.569926	0.413783	0.293493
0	H	0.075779	0.173039	0.718133
0	H	0.413788	0.920638	0.213976
0	C	0.826056	0.909779	0.815886
0	C	0.652764	0.185462	0.311771
0	C	0.157183	0.401662	0.699898
0	C	0.330436	0.693637	0.195219
0	C	0.858983	0.0572567	0.832191
0	C	0.620899	0.0383113	0.32838
0	C	0.123394	0.54902	0.68362
0	C	0.363127	0.546016	0.178968
0	H	0.974192	0.0811169	0.847222
0	H	0.50675	0.0147204	0.343875
0	H	0.00908957	0.57162	0.668076
0	H	0.477128	0.52262	0.163369
0	C	0.744543	0.177008	0.828955
0	C	0.734918	0.918277	0.32488
0	C	0.23573	0.670182	0.687576
0	C	0.250005	0.425487	0.182932
0	H	0.771674	0.293394	0.840576
0	H	0.707886	0.802088	0.336652
0	H	0.20752	0.78669	0.676166
0	H	0.277468	0.308844	0.171531
0	C	0.597482	0.146449	0.809818
0	C	0.881085	0.948323	0.305285
0	C	0.382275	0.640768	0.707079
0	C	0.103875	0.455806	0.202517
0	C	0.562574	0.00129948	0.792881
0	C	0.91543	0.0934043	0.288211
0	C	0.41858	0.495439	0.723745
0	C	0.0684358	0.60156	0.219059
0	H	0.447615	0.982192	0.777126
0	H	0.0300896	0.112411	0.272272
0	H	0.533439	0.477188	0.739612
0	H	0.95342	0.620644	0.234807
0	C	0.678124	0.882649	0.796104
0	C	0.799909	0.212097	0.291567
0	C	0.304448	0.375629	0.720071
0	C	0.183248	0.720725	0.215357
0	H	0.654996	0.767613	0.782971
0	H	0.822338	0.326865	0.278155
0	H	0.328044	0.260535	0.733197
0	H	0.160207	0.835884	0.228526
0	C	0.958629	0.707297	0.860916
0	C	0.518594	0.385979	0.357176
0	C	0.0253699	0.199645	0.654491
0	C	0.462896	0.897359	0.150215
0	H	0.00896245	0.79672	0.881877
0	H	0.468139	0.295243	0.377729
0	H	0.975802	0.289947	0.633681
0	H	0.512928	0.808656	0.129019
0	C	0.787962	0.657333	0.876226
0	C	0.688465	0.436233	0.372988
0	C	0.195545	0.148543	0.63899
0	C	0.292207	0.948461	0.135084
0	H	0.69917	0.664172	0.850431
0	H	0.778645	0.427452	0.347526
0	H	0.285656	0.158325	0.664448
0	H	0.204093	0.942453	0.16103
0	C	0.719977	0.756251	0.909587
0	C	0.754768	0.339692	0.407017
0	C	0.2615	0.244151	0.604759
0	C	0.22289	0.849569	0.101882
0	C	0.657948	0.958305	0.951156
0	C	0.81456	0.140725	0.449723
0	C	0.322332	0.443044	0.562068
0	C	0.160381	0.648316	0.0601106
0	C	0.64902	0.103154	0.97134
0	C	0.821919	0.997353	0.470608
0	C	0.331563	0.58677	0.541378
0	C	0.152334	0.50411	0.0396378
0	H	0.72151	0.202232	0.961018
0	H	0.747912	0.898496	0.460845
0	H	0.260336	0.686717	0.551636
0	H	0.226124	0.40531	0.0495821
0	C	0.548021	0.111759	0.00415108
0	C	0.923203	0.990124	0.50342
0	C	0.430632	0.59274	0.508147
0	C	0.0507703	0.495962	0.00692087
0	H	0.536144	0.221073	0.0207144
0	H	0.933915	0.881706	0.520399
0	H	0.442572	0.701136	0.491222
0	H	0.0397514	0.387227	0.990098
0	C	0.45626	0.980262	0.017147
0	C	0.0165128	0.121581	0.515817
0	C	0.520031	0.459647	0.495213
0	C	0.957208	0.626988	0.994412
0	H	0.376128	0.993768	0.0427984
0	H	0.0965101	0.10941	0.541589
0	H	0.598235	0.470725	0.469107
0	H	0.87657	0.613747	0.968835
0	C	0.464744	0.838091	0.997743
0	C	0.00949319	0.26229	0.49563
0	C	0.511349	0.318704	0.51523
0	C	0.964835	0.76856	0.014132
0	H	0.394074	0.737764	0.00779817
0	H	0.081511	0.362464	0.505224
0	H	0.580439	0.217348	0.505221
0	H	0.892812	0.868444	0.00437546
0	C	0.567137	0.824274	0.964132
0	C	0.907139	0.274784	0.461948
0	C	0.411022	0.307434	0.549283
0	C	0.0682764	0.782136	0.0475578
0	C	0.608547	0.698925	0.937491
0	C	0.866887	0.398288	0.434596
0	C	0.370614	0.184174	0.57668
0	C	0.110209	0.907035	0.0742993
0	C	0.554516	0.533686	0.939509
0	C	0.922313	0.563255	0.435683
0	C	0.424972	0.0189124	0.575616
0	C	0.0559125	0.072185	0.072391
0	H	0.420317	0.526372	0.942003
0	H	0.0566981	0.569816	0.437891
0	H	0.55889	0.0115745	0.572411
0	H	0.921409	0.0794345	0.0707142
0	H	0.601636	0.479685	0.967501
0	H	0.876431	0.619529	0.463475
0	H	0.375238	0.961314	0.548409
0	H	0.100104	0.125508	0.0440181
0	C	0.613512	0.440719	0.902863
0	C	0.86278	0.654215	0.398742
0	C	0.369554	0.93027	0.613296
0	C	0.118376	0.166192	0.108508
0	H	0.61562	0.312919	0.909639
0	H	0.860645	0.782249	0.40509
0	H	0.368374	0.801796	0.607608
0	H	0.121884	0.293515	0.101199
0	H	0.528912	0.45802	0.877211
0	H	0.947078	0.63563	0.373081
0	H	0.455536	0.951653	0.638476
0	H	0.0343312	0.151536	0.134363
