#******************************************
#
# CIF file created by Zeo++
# Zeo++ is an open source package to
# analyze microporous materials
#
#*******************************************

_cell_length_a		22.1634(0)
_cell_length_b		13.4991(0)
_cell_length_c		24.2368(0)
_cell_angle_alpha		90(0)
_cell_angle_beta		116.763(0)
_cell_angle_gamma		90(0)

_symmetry_space_group_name_H-M		'P1'
_symmetry_Int_Tables_number		1
_symmetry_cell_setting		Monoclinic

loop_
_symmetry_equiv_pos_as_xyz
'+x,+y,+z'

loop_
_atom_site_label
_atom_site_type_symbol
_atom_site_fract_x
_atom_site_fract_y
_atom_site_fract_z
0	C	0.308855	0.0390753	0.231945
0	C	0.673377	0.0397645	0.261373
0	C	0.665889	0.949628	0.755959
0	C	0.301142	0.949674	0.726576
0	C	0.805233	0.537509	0.232021
0	C	0.177007	0.537742	0.261322
0	C	0.169395	0.451583	0.755916
0	C	0.797639	0.451324	0.726633
0	C	0.246255	0.0836629	0.216827
0	C	0.736036	0.0842966	0.27663
0	C	0.728511	0.905075	0.771124
0	C	0.23853	0.905075	0.711358
0	C	0.742151	0.58073	0.216756
0	C	0.240096	0.580957	0.276681
0	C	0.232474	0.40836	0.771202
0	C	0.734562	0.408109	0.711291
0	C	0.2015	0.112173	0.156259
0	C	0.780839	0.112426	0.337243
0	C	0.773244	0.876669	0.83172
0	C	0.193729	0.876797	0.650734
0	C	0.697077	0.608264	0.156093
0	C	0.285219	0.608293	0.337379
0	C	0.277532	0.380822	0.831863
0	C	0.689432	0.380752	0.650603
0	C	0.218452	0.0957591	0.10802
0	C	0.76396	0.0958888	0.385512
0	C	0.756264	0.893157	0.879932
0	C	0.210583	0.893294	0.602462
0	C	0.713788	0.591755	0.107723
0	C	0.268561	0.591693	0.385784
0	C	0.260779	0.397376	0.880213
0	C	0.706048	0.397355	0.602186
0	C	0.280464	0.0514636	0.121581
0	C	0.70192	0.0515828	0.371864
0	C	0.694171	0.937393	0.866312
0	C	0.272589	0.937697	0.61607
0	C	0.776017	0.548094	0.121325
0	C	0.206346	0.547971	0.372124
0	C	0.19855	0.440971	0.866585
0	C	0.768219	0.441093	0.615805
0	C	0.324754	0.0251765	0.182688
0	C	0.657615	0.0256126	0.310716
0	C	0.649922	0.963553	0.805165
0	C	0.316891	0.963779	0.677216
0	C	0.820855	0.523467	0.182613
0	C	0.161509	0.523509	0.310818
0	C	0.153727	0.465587	0.805305
0	C	0.813097	0.465573	0.677107
0	C	0.330121	0.955839	0.342106
0	C	0.651325	0.956156	0.150623
0	C	0.644557	0.0331356	0.645858
0	C	0.323326	0.0330719	0.837383
0	C	0.826491	0.455363	0.342237
0	C	0.154959	0.455556	0.150465
0	C	0.148147	0.533704	0.645714
0	C	0.819704	0.533552	0.837499
0	C	0.371555	0.939846	0.405273
0	C	0.609545	0.93981	0.0875294
0	C	0.603088	0.0491249	0.582699
0	C	0.365112	0.0494242	0.900478
0	C	0.867603	0.440314	0.405566
0	C	0.113516	0.440206	0.0872143
0	C	0.107039	0.54873	0.582378
0	C	0.861148	0.548956	0.900751
0	C	0.349405	0.891892	0.444123
0	C	0.631202	0.891776	0.0482679
0	C	0.625241	0.0971104	0.543828
0	C	0.343419	0.0974223	0.939733
0	C	0.844916	0.394881	0.4448
0	C	0.135711	0.394753	0.0475461
0	C	0.129727	0.594136	0.54316
0	C	0.838915	0.594386	0.940398
0	C	0.283318	0.856259	0.420333
0	C	0.697431	0.85624	0.0719402
0	C	0.691302	0.132796	0.567645
0	C	0.27717	0.13283	0.916069
0	C	0.778628	0.360178	0.421085
0	C	0.202147	0.360141	0.0711649
0	C	0.195983	0.628892	0.566874
0	C	0.772467	0.628871	0.916777
0	C	0.242334	0.864249	0.356721
0	C	0.738761	0.864245	0.135518
0	C	0.732299	0.124825	0.631239
0	C	0.235856	0.12484	0.852498
0	C	0.737602	0.36754	0.357439
0	C	0.243484	0.367464	0.134743
0	C	0.237011	0.621574	0.630493
0	C	0.731144	0.621528	0.853218
0	C	0.265871	0.913038	0.318775
0	C	0.715542	0.913217	0.173672
0	C	0.708771	0.0759792	0.669185
0	C	0.259088	0.0759417	0.814338
0	C	0.76175	0.414209	0.319261
0	C	0.21967	0.414285	0.173158
0	C	0.212886	0.574896	0.668685
0	C	0.754975	0.574737	0.814803
0	C	0.413668	0.921219	0.303631
0	C	0.568777	0.921705	0.19004
0	C	0.561025	0.0677435	0.684352
0	C	0.405856	0.0674564	0.797944
0	C	0.911655	0.421444	0.304207
0	C	0.0707528	0.421794	0.189418
0	C	0.0629836	0.567658	0.683733
0	C	0.903902	0.567268	0.79855
0	C	0.483474	0.916717	0.340839
0	C	0.498999	0.917031	0.152878
0	C	0.491268	0.0722388	0.647156
0	C	0.475654	0.0721397	0.835107
0	C	0.981837	0.418242	0.340396
0	C	0.000578528	0.418467	0.15328
0	C	0.992799	0.570828	0.64754
0	C	0.97407	0.570644	0.834699
0	C	0.521864	0.829757	0.349106
0	C	0.460715	0.83001	0.144735
0	C	0.452813	0.159215	0.638863
0	C	0.513948	0.159109	0.84326
0	C	0.0210507	0.332553	0.347619
0	C	0.961497	0.332716	0.146223
0	C	0.953595	0.656549	0.640344
0	C	0.0131466	0.656383	0.841762
0	C	0.490718	0.743183	0.3178
0	C	0.491979	0.743508	0.176116
0	C	0.484021	0.245776	0.670205
0	C	0.482677	0.245707	0.81183
0	C	0.990022	0.24557	0.316821
0	C	0.9926	0.245851	0.177065
0	C	0.984613	0.743432	0.671127
0	C	0.98202	0.743266	0.810861
0	C	0.421231	0.745333	0.278153
0	C	0.561415	0.745856	0.215746
0	C	0.553428	0.243652	0.709805
0	C	0.413194	0.243257	0.772178
0	C	0.920266	0.246423	0.278693
0	C	0.0623243	0.246834	0.215173
0	C	0.0543398	0.742673	0.709247
0	C	0.912266	0.742209	0.772728
0	C	0.384395	0.832872	0.271876
0	C	0.598163	0.833454	0.221947
0	C	0.590312	0.156086	0.716124
0	C	0.376483	0.155726	0.766018
0	C	0.882456	0.332831	0.27271
0	C	0.100048	0.333273	0.221064
0	C	0.0921738	0.656243	0.715239
0	C	0.87458	0.655757	0.76687
0	C	0.423167	0.166134	0.291174
0	C	0.559347	0.166422	0.202233
0	C	0.551451	0.822874	0.696766
0	C	0.415237	0.822746	0.785698
0	C	0.920642	0.664022	0.29195
0	C	0.0619167	0.664233	0.2015
0	C	0.053996	0.325034	0.696012
0	C	0.912729	0.324858	0.786469
0	H	0.451425	0.112338	0.276468
0	H	0.531344	0.1126	0.217216
0	H	0.523191	0.876662	0.711474
0	H	0.443265	0.876572	0.770741
0	H	0.947661	0.609009	0.276657
0	H	0.0351526	0.609207	0.217069
0	H	0.0269781	0.38003	0.711319
0	H	0.939515	0.379895	0.770929
0	H	0.378354	0.190297	0.248077
0	H	0.604399	0.190456	0.245182
0	H	0.596268	0.798685	0.739856
0	H	0.370201	0.798762	0.742726
0	H	0.876247	0.689383	0.249002
0	H	0.106555	0.689457	0.244303
0	H	0.0984022	0.299656	0.73895
0	H	0.868103	0.299677	0.743651
0	C	0.467803	0.253733	0.321971
0	C	0.514607	0.253928	0.171635
0	C	0.506799	0.73531	0.665972
0	C	0.459957	0.735206	0.816287
0	C	0.966666	0.750252	0.322684
0	C	0.0158008	0.750383	0.170957
0	C	0.00797281	0.23882	0.665279
0	C	0.958817	0.238671	0.816993
0	C	0.441058	0.34976	0.30858
0	C	0.541373	0.349922	0.185134
0	C	0.533556	0.639242	0.679369
0	C	0.433202	0.639203	0.80279
0	C	0.939949	0.846518	0.310668
0	C	0.0425238	0.846622	0.183076
0	C	0.0346845	0.142541	0.677292
0	C	0.932091	0.142449	0.804869
0	H	0.388615	0.361732	0.275402
0	H	0.593824	0.36187	0.218274
0	H	0.586003	0.627305	0.712551
0	H	0.380754	0.627254	0.769652
0	H	0.886846	0.858201	0.278889
0	H	0.0956336	0.8583	0.214811
0	H	0.087792	0.130866	0.709076
0	H	0.878981	0.130784	0.773138
0	C	0.481761	0.431217	0.337813
0	C	0.500647	0.431366	0.155965
0	C	0.492872	0.557817	0.650146
0	C	0.473919	0.557751	0.831944
0	C	0.981327	0.927808	0.338858
0	C	0.00113374	0.927894	0.154957
0	C	0.993333	0.0612627	0.649116
0	C	0.973472	0.0611522	0.832977
0	H	0.460213	0.505206	0.326968
0	H	0.522199	0.505347	0.166839
0	H	0.514411	0.483815	0.66099
0	H	0.452375	0.483764	0.821065
0	H	0.960148	0.00196478	0.328936
0	H	0.0222954	0.00204998	0.164889
0	H	0.0144935	0.987097	0.65903
0	H	0.952307	0.987001	0.823033
0	C	0.549197	0.417325	0.380738
0	C	0.433244	0.417441	0.112997
0	C	0.425429	0.571692	0.607214
0	C	0.541329	0.571665	0.874923
0	C	0.0494828	0.913174	0.379458
0	C	0.932985	0.913224	0.114311
0	C	0.925152	0.0758961	0.608501
0	C	0.0416191	0.0758173	0.873633
0	H	0.58065	0.480592	0.403882
0	H	0.401798	0.480737	0.0899426
0	H	0.393992	0.508419	0.584074
0	H	0.572769	0.508358	0.897968
0	H	0.0814691	0.976276	0.401803
0	H	0.901008	0.976356	0.0920631
0	H	0.893187	0.0127751	0.586165
0	H	0.0735882	0.0126719	0.895873
0	C	0.576152	0.321721	0.393451
0	C	0.406312	0.321835	0.100024
0	C	0.398458	0.667283	0.594502
0	C	0.568261	0.667285	0.887907
0	C	0.0762703	0.817357	0.391047
0	C	0.906234	0.817406	0.102477
0	C	0.898364	0.171671	0.596921
0	C	0.0683835	0.171641	0.885483
0	H	0.628397	0.31024	0.427237
0	H	0.354143	0.310454	0.0659458
0	H	0.346215	0.678752	0.560721
0	H	0.620433	0.678656	0.921992
0	H	0.129188	0.805695	0.423358
0	H	0.853372	0.805833	0.0698947
0	H	0.845444	0.183335	0.564614
0	H	0.121245	0.183207	0.918077
0	C	0.536103	0.240118	0.363374
0	C	0.446374	0.240197	0.130049
0	C	0.438515	0.748897	0.624589
0	C	0.528201	0.7489	0.857883
0	C	0.0355045	0.735865	0.361798
0	C	0.947011	0.735875	0.131658
0	C	0.93913	0.253196	0.626176
0	C	0.0276165	0.253163	0.856301
0	H	0.55881	0.166755	0.372059
0	H	0.423811	0.166728	0.121046
0	H	0.415784	0.82225	0.615904
0	H	0.550774	0.822373	0.866892
0	H	0.0583058	0.662664	0.369303
0	H	0.924332	0.662571	0.12382
0	H	0.916312	0.326375	0.618673
0	H	0.0503006	0.326468	0.864138
0	C	0.353443	0.178221	0.349021
0	C	0.627172	0.17878	0.142419
0	C	0.621168	0.810813	0.638897
0	C	0.347397	0.810345	0.845499
0	C	0.849416	0.675698	0.349036
0	C	0.131233	0.67618	0.142425
0	C	0.1252	0.313403	0.638898
0	C	0.843382	0.312891	0.845525
0	H	0.31861	0.130674	0.359745
0	H	0.662219	0.13158	0.13183
0	H	0.656	0.858387	0.628183
0	H	0.312346	0.857514	0.856102
0	H	0.814542	0.627377	0.35932
0	H	0.166322	0.628228	0.132267
0	H	0.16007	0.361741	0.628616
0	H	0.808298	0.360843	0.855692
0	H	0.320213	0.222518	0.307277
0	H	0.660237	0.224644	0.183464
0	H	0.654395	0.766491	0.680628
0	H	0.314324	0.7645	0.80445
0	H	0.815959	0.719983	0.307449
0	H	0.164535	0.722055	0.183303
0	H	0.15866	0.269093	0.680475
0	H	0.810075	0.267043	0.80464
0	C	0.390599	0.244996	0.404072
0	C	0.588836	0.244267	0.0867457
0	C	0.584015	0.744099	0.583837
0	C	0.385744	0.744806	0.901152
0	C	0.886493	0.74163	0.404439
0	C	0.0929796	0.740884	0.0864334
0	C	0.0881299	0.24748	0.583499
0	C	0.881635	0.248173	0.901513
0	C	0.378661	0.347388	0.398223
0	C	0.600778	0.346911	0.0918867
0	C	0.595949	0.641636	0.589704
0	C	0.37381	0.642202	0.896022
0	C	0.874338	0.843971	0.398856
0	C	0.105102	0.843378	0.0912658
0	C	0.100287	0.145144	0.589107
0	C	0.869498	0.145675	0.896671
0	H	0.344518	0.379701	0.353831
0	H	0.635944	0.379614	0.135895
0	H	0.630089	0.609379	0.634118
0	H	0.338647	0.609477	0.852021
0	H	0.839709	0.876076	0.354581
0	H	0.140756	0.875938	0.135135
0	H	0.134904	0.113045	0.633384
0	H	0.833845	0.113125	0.852812
0	C	0.410943	0.409519	0.449368
0	C	0.566793	0.408583	0.0408433
0	C	0.563704	0.579541	0.538608
0	C	0.407808	0.580497	0.947075
0	C	0.906765	0.905771	0.450086
0	C	0.0709726	0.904767	0.0401278
0	C	0.0678723	0.0833104	0.537878
0	C	0.903648	0.0842771	0.947822
0	H	0.40292	0.489203	0.444063
0	H	0.575402	0.488454	0.0456126
0	H	0.571711	0.499844	0.543916
0	H	0.399196	0.500628	0.942299
0	H	0.89795	0.985284	0.44511
0	H	0.0803442	0.984425	0.044543
0	H	0.0766939	0.00379988	0.542883
0	H	0.894274	0.00461541	0.943397
0	C	0.45445	0.370214	0.50703
0	C	0.520965	0.369148	0.983947
0	C	0.520187	0.6188	0.4809
0	C	0.453633	0.619927	0.00395805
0	C	0.951322	0.866321	0.507372
0	C	0.0241352	0.865195	0.98366
0	C	0.0233394	0.122706	0.480588
0	C	0.950477	0.123854	0.00426982
0	H	0.47899	0.418659	0.546739
0	H	0.494633	0.417535	0.944291
0	H	0.495677	0.570331	0.44121
0	H	0.479969	0.571542	0.0436117
0	H	0.97613	0.914421	0.547174
0	H	0.997542	0.913256	0.943925
0	H	0.99855	0.0745925	0.440792
0	H	0.97708	0.0757809	0.0440048
0	C	0.466338	0.268343	0.513162
0	C	0.509395	0.267224	0.978299
0	C	0.508284	0.720654	0.474756
0	C	0.465214	0.721887	0.00960436
0	C	0.963942	0.764617	0.513047
0	C	0.0118755	0.763435	0.978512
0	C	0.0106872	0.224419	0.47489
0	C	0.962758	0.225618	0.00943341
0	H	0.500642	0.236997	0.557794
0	H	0.473675	0.235571	0.934034
0	H	0.473969	0.75197	0.430116
0	H	0.500945	0.753526	0.0538768
0	H	0.999798	0.73344	0.557102
0	H	0.974671	0.731936	0.934873
0	H	0.97482	0.255549	0.430826
0	H	0.999968	0.25712	0.0530669
0	C	0.434607	0.206062	0.462019
0	C	0.54348	0.205197	0.0292841
0	C	0.540015	0.782967	0.52589
0	C	0.431144	0.783878	0.958637
0	C	0.931225	0.702401	0.462039
0	C	0.0468787	0.701498	0.0292813
0	C	0.0433921	0.286661	0.525881
0	C	0.927745	0.287544	0.958647
0	H	0.444583	0.127134	0.468547
0	H	0.533993	0.125975	0.0225558
0	H	0.530021	0.861895	0.51934
0	H	0.440643	0.863101	0.96535
0	H	0.940989	0.623348	0.468608
0	H	0.0376408	0.622168	0.0225236
0	H	0.0336091	0.365709	0.519293
0	H	0.937006	0.366877	0.965405
0	B	0.36234	0.00894704	0.301392
0	B	0.619875	0.00958457	0.191858
0	B	0.612347	0.979967	0.686561
0	B	0.354724	0.979653	0.796108
0	B	0.859159	0.508177	0.301658
0	B	0.123047	0.508627	0.19158
0	B	0.115465	0.480902	0.686281
0	B	0.851599	0.480454	0.796378
0	N	0.39941	0.112579	0.333314
0	N	0.582422	0.112885	0.159605
0	N	0.575196	0.876419	0.654612
0	N	0.392127	0.876278	0.828305
0	N	0.896094	0.611303	0.3337
0	N	0.0857935	0.611507	0.159269
0	N	0.0785223	0.377773	0.65425
0	N	0.888832	0.377563	0.828692
0	H	0.442006	0.0975423	0.374441
0	H	0.539426	0.0971598	0.118942
0	H	0.532594	0.891449	0.613492
0	H	0.435119	0.892021	0.868973
0	H	0.93846	0.59661	0.375055
0	H	0.0430235	0.596106	0.118376
0	H	0.036148	0.39245	0.612903
0	H	0.931598	0.392969	0.869592
0	F	0.22507	0.0996387	0.259372
0	F	0.756948	0.10075	0.233947
0	F	0.749682	0.888985	0.728583
0	F	0.217579	0.888692	0.754011
0	F	0.720777	0.596228	0.25923
0	F	0.261216	0.596876	0.234075
0	F	0.253827	0.3928	0.728713
0	F	0.713415	0.392245	0.75389
0	F	0.143001	0.155208	0.14418
0	F	0.839414	0.155382	0.349469
0	F	0.831746	0.833575	0.843875
0	F	0.135207	0.833769	0.638562
0	F	0.637881	0.649239	0.143785
0	F	0.344408	0.649295	0.349766
0	F	0.336698	0.339721	0.844185
0	F	0.630235	0.339762	0.63825
0	F	0.17641	0.121621	0.0505495
0	F	0.806017	0.121686	0.442968
0	F	0.798258	0.867402	0.937407
0	F	0.168557	0.867374	0.545021
0	F	0.671172	0.615729	0.0500338
0	F	0.311175	0.615748	0.443425
0	F	0.30339	0.373372	0.937912
0	F	0.663392	0.373294	0.544529
0	F	0.297206	0.0340064	0.0763739
0	F	0.685218	0.0337962	0.417057
0	F	0.677351	0.954845	0.911439
0	F	0.289259	0.955429	0.570857
0	F	0.792414	0.529376	0.0760427
0	F	0.189987	0.529014	0.417405
0	F	0.182068	0.459626	0.911841
0	F	0.784517	0.460113	0.57048
0	F	0.383829	0.987125	0.191942
0	F	0.598557	0.987654	0.301616
0	F	0.590798	0.00147381	0.79587
0	F	0.375917	0.00179128	0.686279
0	F	0.880396	0.487283	0.191737
0	F	0.101996	0.487409	0.301865
0	F	0.0941418	0.501662	0.796148
0	F	0.87259	0.501717	0.686039
0	F	0.435602	0.969447	0.431532
0	F	0.54529	0.96892	0.061196
0	F	0.539052	0.0195584	0.556458
0	F	0.429354	0.0202871	0.926816
0	F	0.931926	0.468604	0.431681
0	F	0.0489867	0.468021	0.0610676
0	F	0.0427094	0.520432	0.55628
0	F	0.925675	0.521119	0.926915
0	F	0.391306	0.879379	0.503473
0	F	0.588545	0.879403	0.98909
0	F	0.583342	0.109562	0.484484
0	F	0.386083	0.109839	0.998912
0	F	0.88659	0.384184	0.504366
0	F	0.0933338	0.384241	0.988125
0	F	0.0880424	0.60477	0.483553
0	F	0.88131	0.604967	0.999828
0	F	0.26088	0.814737	0.457192
0	F	0.719619	0.814753	0.0348381
0	F	0.713706	0.174343	0.530744
0	F	0.254919	0.174212	0.953163
0	F	0.755999	0.32038	0.45825
0	F	0.224527	0.320409	0.033732
0	F	0.218589	0.668716	0.52966
0	F	0.75001	0.668529	0.954199
0	F	0.180857	0.825021	0.332812
0	F	0.800306	0.825102	0.159395
0	F	0.793761	0.164138	0.655159
0	F	0.174256	0.16383	0.82862
0	F	0.675663	0.329942	0.333849
0	F	0.305516	0.329962	0.158319
0	F	0.298953	0.659245	0.654096
0	F	0.669068	0.658894	0.829631
0	F	0.222821	0.915649	0.259027
0	F	0.758743	0.916378	0.233308
0	F	0.751828	0.0733851	0.728948
0	F	0.215895	0.0728024	0.7547
0	F	0.718564	0.416887	0.25955
0	F	0.26301	0.417485	0.232752
0	F	0.25608	0.572212	0.728396
0	F	0.711638	0.571512	0.755208
0	F	0.518366	0.995358	0.371697
0	F	0.46397	0.995472	0.121754
0	F	0.456336	0.993613	0.616297
0	F	0.510657	0.993657	0.866182
0	F	0.0165573	0.497191	0.37129
0	F	0.965736	0.497209	0.122099
0	F	0.958097	0.491878	0.616665
0	F	0.00891381	0.491868	0.865853
0	F	0.587628	0.829184	0.386927
0	F	0.394958	0.829274	0.106949
0	F	0.387086	0.159768	0.601068
0	F	0.579673	0.159893	0.881025
0	F	0.0871677	0.33342	0.384092
0	F	0.895348	0.33347	0.109778
0	F	0.887445	0.655628	0.603866
0	F	0.0792751	0.655698	0.878213
0	F	0.526142	0.660552	0.325827
0	F	0.456591	0.660827	0.168111
0	F	0.448511	0.32839	0.662156
0	F	0.518037	0.328274	0.819802
0	F	0.0260072	0.163604	0.323988
0	F	0.95665	0.16379	0.169921
0	F	0.94857	0.825449	0.663972
0	F	0.0179323	0.825283	0.817974
0	F	0.391008	0.663979	0.247348
0	F	0.591712	0.664481	0.246577
0	F	0.583687	0.325017	0.740644
0	F	0.382909	0.324592	0.741301
0	F	0.890311	0.164237	0.248635
0	F	0.0923429	0.164607	0.245253
0	F	0.084315	0.824858	0.739333
0	F	0.882247	0.824355	0.742604
0	F	0.318824	0.827801	0.233339
0	F	0.663748	0.828491	0.260502
0	F	0.655869	0.161152	0.75469
0	F	0.31089	0.160686	0.727472
0	F	0.816553	0.326842	0.235212
0	F	0.165975	0.327361	0.258568
0	F	0.158076	0.662245	0.752763
0	F	0.808657	0.661636	0.729371
