#******************************************
#
# CIF file created by Zeo++
# Zeo++ is an open source package to
# analyze microporous materials
#
#*******************************************

_cell_length_a		18.8142(0)
_cell_length_b		18.7719(0)
_cell_length_c		10.8632(0)
_cell_angle_alpha		90(0)
_cell_angle_beta		90(0)
_cell_angle_gamma		120.175(0)

_symmetry_space_group_name_H-M		'P1'
_symmetry_Int_Tables_number		1
_symmetry_cell_setting		Monoclinic

loop_
_symmetry_equiv_pos_as_xyz
'+x,+y,+z'

loop_
_atom_site_label
_atom_site_type_symbol
_atom_site_fract_x
_atom_site_fract_y
_atom_site_fract_z
0	Br	0.207554	0.22123	0.0328203
0	Br	0.788622	0.992434	0.368862
0	Br	0.0167492	0.804909	0.700967
0	Br	0.804417	0.791741	0.536874
0	Br	0.22104	0.0185238	0.864518
0	Br	0.991904	0.207987	0.201659
0	O	0.554086	0.512462	0.650754
0	O	0.501675	0.0499523	0.988852
0	O	0.962603	0.456174	0.313487
0	O	0.456121	0.498328	0.151695
0	O	0.509311	0.960729	0.481611
0	O	0.0479921	0.553367	0.821069
0	O	0.610461	0.555868	0.472986
0	O	0.454272	0.0607013	0.813384
0	O	0.953761	0.400727	0.136066
0	O	0.39946	0.453306	0.974479
0	O	0.556826	0.951595	0.305342
0	O	0.0597513	0.610606	0.644318
0	O	0.407952	0.645626	0.688061
0	O	0.364473	0.767503	0.0209027
0	O	0.243433	0.605822	0.350679
0	O	0.603985	0.365482	0.18711
0	O	0.645718	0.242026	0.51872
0	O	0.767264	0.40564	0.854762
0	O	0.353747	0.236144	0.614534
0	O	0.774922	0.122268	0.949912
0	O	0.886763	0.656192	0.279645
0	O	0.65636	0.774415	0.115013
0	O	0.235284	0.887735	0.446017
0	O	0.12182	0.351735	0.781612
0	N	0.550474	0.52146	0.540139
0	N	0.490514	0.0363663	0.878605
0	N	0.976737	0.460445	0.203312
0	N	0.459544	0.488648	0.0412536
0	N	0.520248	0.975067	0.371543
0	N	0.0350204	0.550228	0.710574
0	C	0.271828	0.275533	0.175901
0	C	0.734467	0.00256492	0.511454
0	C	0.00679317	0.73996	0.84297
0	C	0.739292	0.73652	0.678722
0	C	0.275199	0.00834199	0.00710957
0	C	0.00224093	0.272178	0.344744
0	C	0.237724	0.30037	0.268744
0	C	0.710251	0.943972	0.605035
0	C	0.0656381	0.77415	0.93611
0	C	0.772886	0.711142	0.771633
0	C	0.299806	0.0671084	0.100489
0	C	0.943783	0.237406	0.438283
0	H	0.175275	0.289938	0.260451
0	H	0.720901	0.892001	0.597338
0	H	0.117467	0.83711	0.928748
0	H	0.835441	0.721789	0.764058
0	H	0.289459	0.119269	0.0926493
0	H	0.891941	0.174492	0.430437
0	C	0.284587	0.33876	0.373675
0	C	0.672074	0.952632	0.709805
0	C	0.0572877	0.7267	0.04018
0	C	0.725397	0.672036	0.875674
0	C	0.33799	0.0583858	0.205232
0	C	0.952455	0.284229	0.543288
0	H	0.258236	0.358254	0.446699
0	H	0.653097	0.907053	0.78338
0	H	0.103051	0.75307	0.113445
0	H	0.751266	0.652059	0.94878
0	H	0.357256	0.104096	0.278646
0	H	0.906995	0.25734	0.616877
0	C	0.364304	0.351361	0.385455
0	C	0.658956	0.01955	0.720873
0	C	0.990492	0.646276	0.0509194
0	C	0.645598	0.659332	0.88665
0	C	0.350777	0.991274	0.216443
0	C	0.0192206	0.364618	0.554499
0	C	0.397519	0.326142	0.290653
0	C	0.683327	0.0775321	0.625265
0	C	0.932095	0.612996	0.955962
0	C	0.612848	0.685034	0.791843
0	C	0.325915	0.933064	0.121073
0	C	0.0771737	0.398579	0.458987
0	H	0.459524	0.335413	0.29837
0	H	0.673658	0.130117	0.632209
0	H	0.879518	0.550495	0.962911
0	H	0.550785	0.675675	0.798949
0	H	0.335279	0.880288	0.128161
0	H	0.129614	0.461114	0.466158
0	C	0.351477	0.288399	0.185069
0	C	0.72086	0.0690035	0.519736
0	C	0.94028	0.659655	0.851136
0	C	0.659545	0.723479	0.687019
0	C	0.288325	0.94161	0.0156521
0	C	0.0686794	0.35251	0.353321
0	H	0.378153	0.269752	0.111049
0	H	0.738861	0.1139	0.444985
0	H	0.895076	0.63291	0.776849
0	H	0.633265	0.742521	0.61295
0	H	0.269875	0.896443	0.941227
0	H	0.113592	0.379708	0.278684
0	C	0.416081	0.391762	0.499158
0	C	0.619108	0.0309933	0.835005
0	C	0.979813	0.594235	0.164034
0	C	0.593609	0.618586	2.19162e-05
0	C	0.391013	0.979881	0.330178
0	C	0.0304062	0.416032	0.668567
0	H	0.459826	0.367484	0.510947
0	H	0.644123	0.0992992	0.84763
0	H	0.91186	0.54958	0.176283
0	H	0.549753	0.642702	0.0118683
0	H	0.366396	0.911607	0.342369
0	H	0.0984932	0.459992	0.681039
0	C	0.466749	0.486299	0.477624
0	C	0.524883	0.987839	0.814048
0	C	0.02432	0.544702	0.141421
0	C	0.543144	0.524073	0.97832
0	C	0.485224	0.023529	0.30859
0	C	0.98681	0.466573	0.647114
0	H	0.479267	0.49873	0.375533
0	H	0.512235	0.98873	0.712279
0	H	0.0242652	0.532727	0.0391229
0	H	0.530491	0.51175	0.876286
0	H	0.497636	0.0233133	0.20651
0	H	0.987376	0.47955	0.545167
0	C	0.42066	0.530155	0.522869
0	C	0.480388	0.897288	0.858038
0	C	0.114368	0.591401	0.186689
0	C	0.589328	0.480221	0.0229864
0	C	0.529632	0.113816	0.353817
0	C	0.896583	0.419942	0.691573
0	H	0.361617	0.502265	0.468231
0	H	0.507639	0.865925	0.802573
0	H	0.14567	0.650642	0.132205
0	H	0.648097	0.507923	0.967715
0	H	0.502374	0.145493	0.299151
0	H	0.865381	0.36085	0.636701
0	C	0.465606	0.621692	0.500557
0	C	0.38912	0.851468	0.835621
0	C	0.16078	0.546667	0.164243
0	C	0.544303	0.388628	0.00124473
0	C	0.620919	0.159716	0.331468
0	C	0.850401	0.464865	0.668842
0	C	0.516679	0.65881	0.398377
0	C	0.352501	0.867055	0.734555
0	C	0.146151	0.494884	0.0626768
0	C	0.492166	0.351024	0.900272
0	C	0.657487	0.144822	0.229625
0	C	0.865256	0.516593	0.567141
0	H	0.526135	0.620779	0.331604
0	H	0.390783	0.915666	0.669145
0	H	0.0983135	0.484811	0.99623
0	H	0.481636	0.388652	0.834177
0	H	0.619126	0.0969996	0.163192
0	H	0.913256	0.526668	0.501045
0	C	0.555691	0.743797	0.380764
0	C	0.267748	0.82134	0.716405
0	C	0.191767	0.455796	0.0454536
0	C	0.453347	0.265995	0.882998
0	C	0.742307	0.19025	0.212066
0	C	0.819515	0.55547	0.549161
0	H	0.596065	0.772075	0.301669
0	H	0.239846	0.834427	0.63802
0	H	0.17919	0.414872	0.966947
0	H	0.412175	0.237374	0.804859
0	H	0.770241	0.17766	0.133198
0	H	0.832168	0.59619	0.470349
0	C	0.542563	0.793602	0.46313
0	C	0.217617	0.757323	0.797401
0	C	0.25499	0.469492	0.127598
0	C	0.467623	0.216616	0.964615
0	C	0.792582	0.253441	0.294188
0	C	0.756056	0.541768	0.630794
0	H	0.57215	0.860163	0.446902
0	H	0.151249	0.720671	0.780823
0	H	0.291415	0.439573	0.111797
0	H	0.438119	0.150037	0.948686
0	H	0.859	0.289853	0.277998
0	H	0.719469	0.571434	0.614374
0	C	0.491454	0.758777	0.564519
0	C	0.251938	0.739674	0.897932
0	C	0.272029	0.521449	0.228141
0	C	0.519702	0.251897	0.0649013
0	C	0.758256	0.270523	0.395214
0	C	0.738922	0.489994	0.731648
0	H	0.479092	0.795766	0.628594
0	H	0.214641	0.68962	0.961141
0	H	0.32159	0.534284	0.291967
0	H	0.532872	0.215223	0.128431
0	H	0.795585	0.32002	0.459181
0	H	0.689193	0.477191	0.795245
0	C	0.453688	0.673018	0.582393
0	C	0.337533	0.787222	0.91619
0	C	0.224365	0.559289	0.245696
0	C	0.55729	0.337668	0.0824163
0	C	0.672612	0.223106	0.413113
0	C	0.786561	0.452196	0.749795
0	C	0.353437	0.555823	0.707868
0	C	0.453971	0.802685	0.0414109
0	C	0.207502	0.659404	0.371283
0	C	0.658187	0.455394	0.206386
0	C	0.556255	0.207206	0.538899
0	C	0.8027	0.35161	0.875357
0	C	0.272489	0.529909	0.643135
0	C	0.479976	0.747984	0.975954
0	C	0.261778	0.740709	0.306205
0	C	0.738576	0.481662	0.139701
0	C	0.530833	0.262644	0.474287
0	C	0.748192	0.270386	0.81019
0	H	0.245332	0.566001	0.677666
0	H	0.443715	0.684192	0.00937712
0	H	0.325148	0.769319	0.341004
0	H	0.766462	0.446017	0.173292
0	H	0.566943	0.326065	0.509044
0	H	0.684745	0.242296	0.844407
0	H	0.227706	0.464345	0.659888
0	H	0.545247	0.768689	0.993369
0	H	0.239977	0.784541	0.322286
0	H	0.783211	0.547361	0.155741
0	H	0.465492	0.241898	0.490805
0	H	0.769444	0.22619	0.827026
0	H	0.279736	0.540514	0.543246
0	H	0.469916	0.745321	0.875963
0	H	0.265492	0.733298	0.206378
0	H	0.730402	0.470646	0.0399284
0	H	0.541605	0.266234	0.374379
0	H	0.745042	0.277743	0.710272
0	C	0.345682	0.552934	0.847407
0	C	0.45609	0.796745	0.180864
0	C	0.212978	0.667228	0.510841
0	C	0.66731	0.458593	0.345729
0	C	0.553808	0.212323	0.678486
0	C	0.796929	0.343621	0.0148023
0	H	0.405571	0.579019	0.892924
0	H	0.429513	0.829924	0.226715
0	H	0.178591	0.607287	0.556494
0	H	0.608011	0.433771	0.392636
0	H	0.578822	0.177573	0.723864
0	H	0.829772	0.403632	0.0606336
0	H	0.307325	0.489431	0.881176
0	H	0.519272	0.822091	0.215406
0	H	0.188924	0.706163	0.545201
0	H	0.707009	0.522045	0.378873
0	H	0.490783	0.188358	0.712809
0	H	0.822593	0.306064	0.0491769
0	H	0.317224	0.588391	0.879959
0	H	0.420645	0.732311	0.212334
0	H	0.277069	0.695222	0.542716
0	H	0.694927	0.422158	0.377313
0	H	0.590455	0.276464	0.710799
0	H	0.73266	0.31404	0.046382
0	C	0.399088	0.511645	0.660841
0	C	0.498627	0.893178	0.995831
0	C	0.117415	0.612655	0.324861
0	C	0.611568	0.498923	0.160882
0	C	0.51141	0.117031	0.491887
0	C	0.892927	0.397999	0.829492
0	H	0.458756	0.538536	0.714515
0	H	0.47229	0.926	0.0504127
0	H	0.0849614	0.552769	0.378338
0	H	0.552184	0.47165	0.215175
0	H	0.537701	0.0837619	0.545498
0	H	0.925545	0.457553	0.883764
0	C	0.354906	0.420892	0.685729
0	C	0.589206	0.939254	0.0205672
0	C	0.0705161	0.656063	0.350377
0	C	0.655395	0.589624	0.185965
0	C	0.420881	0.0708524	0.516677
0	C	0.939295	0.35396	0.854523
0	H	0.317399	0.40112	0.769859
0	H	0.608739	0.920849	0.104201
0	H	0.0883831	0.693626	0.434499
0	H	0.693113	0.609426	0.269892
0	H	0.401303	0.0889703	0.600519
0	H	0.921273	0.316279	0.938568
0	C	0.364549	0.367752	0.614803
0	C	0.642539	0.00231363	0.949927
0	C	0.00748963	0.645836	0.279736
0	C	0.645285	0.642654	0.115512
0	C	0.367556	0.0079809	0.445665
0	C	0.00216489	0.363888	0.783713
0	C	0.326675	0.279211	0.650352
0	C	0.731142	0.0517022	0.984578
0	C	0.957014	0.683542	0.315283
0	C	0.683323	0.731235	0.15082
0	C	0.279116	0.95818	0.481105
0	C	0.0520056	0.325391	0.818645
0	H	0.273202	0.255063	0.712626
0	H	0.754758	0.0209906	0.0447289
0	H	0.986665	0.737312	0.377212
0	H	0.73697	0.755407	0.212732
0	H	0.255684	0.98858	0.542452
0	H	0.0223709	0.272108	0.881513
