#******************************************
#
# CIF file created by Zeo++
# Zeo++ is an open source package to
# analyze microporous materials
#
#*******************************************

_cell_length_a		12.4459(0)
_cell_length_b		12.463(0)
_cell_length_c		6.8451(0)
_cell_angle_alpha		90(0)
_cell_angle_beta		90(0)
_cell_angle_gamma		120.1(0)

_symmetry_space_group_name_H-M		'P1'
_symmetry_Int_Tables_number		1
_symmetry_cell_setting		Monoclinic

loop_
_symmetry_equiv_pos_as_xyz
'+x,+y,+z'

loop_
_atom_site_label
_atom_site_type_symbol
_atom_site_fract_x
_atom_site_fract_y
_atom_site_fract_z
0	C	0.490743	0.158321	0.560104
0	C	0.844927	0.332001	0.559794
0	C	0.672033	0.512855	0.560285
0	C	0.514896	0.84496	0.0615846
0	C	0.160639	0.671277	0.0617395
0	C	0.333724	0.490371	0.0614754
0	C	0.514826	0.844817	0.43162
0	C	0.160694	0.671235	0.432073
0	C	0.333552	0.490346	0.431573
0	C	0.490689	0.158263	0.930155
0	C	0.844927	0.331911	0.930127
0	C	0.671885	0.512835	0.93039
0	H	0.513549	0.217119	0.42851
0	H	0.785989	0.29566	0.428364
0	H	0.708554	0.490484	0.428843
0	H	0.49205	0.786433	0.929457
0	H	0.219374	0.70736	0.929776
0	H	0.297696	0.512876	0.929425
0	H	0.49203	0.785981	0.563174
0	H	0.21965	0.707642	0.563485
0	H	0.296999	0.512707	0.562983
0	H	0.513519	0.216807	0.0622388
0	H	0.786148	0.295807	0.0620239
0	H	0.707971	0.490372	0.0624286
0	H	0.546577	0.111689	0.550912
0	H	0.891497	0.434507	0.550318
0	H	0.569399	0.456748	0.550485
0	H	0.459184	0.891746	0.0528441
0	H	0.113896	0.568743	0.0525915
0	H	0.436413	0.546307	0.0524215
0	H	0.45896	0.891414	0.44088
0	H	0.114176	0.568735	0.441625
0	H	0.436189	0.546469	0.441391
0	H	0.546387	0.111472	0.938988
0	H	0.891663	0.434445	0.93928
0	H	0.569206	0.456871	0.939524
0	C	0.351935	0.0598146	0.559721
0	C	0.943696	0.29237	0.559481
0	C	0.712059	0.651337	0.559937
0	C	0.653776	0.943323	0.0614402
0	C	0.061987	0.71109	0.0616181
0	C	0.293389	0.351804	0.0612311
0	C	0.653627	0.943366	0.432001
0	C	0.061849	0.710776	0.432402
0	C	0.293538	0.351864	0.431923
0	C	0.351823	0.0598903	0.930293
0	C	0.943572	0.2921	0.930266
0	C	0.712149	0.651387	0.930618
0	H	0.295637	0.105696	0.549011
0	H	0.897986	0.190142	0.548659
0	H	0.814448	0.707885	0.548729
0	H	0.709939	0.897265	0.0514073
0	H	0.107813	0.81335	0.0514909
0	H	0.190965	0.295468	0.050627
0	H	0.709933	0.897493	0.442695
0	H	0.107496	0.812992	0.44329
0	H	0.191142	0.295321	0.44319
0	H	0.295634	0.105921	0.940348
0	H	0.89773	0.189836	0.940426
0	H	0.814571	0.707773	0.94127
0	H	0.329391	0.000101581	0.429184
0	H	0.00353395	0.329895	0.428965
0	H	0.674441	0.673504	0.429547
0	H	0.676488	0.00273612	0.930322
0	H	0.00243832	0.673986	0.930564
0	H	0.330565	0.329443	0.9303
0	H	0.676148	0.00307732	0.562533
0	H	0.00199045	0.673179	0.562875
0	H	0.331175	0.329697	0.562286
0	H	0.329107	0.000444863	0.0613727
0	H	0.00313485	0.329213	0.0613142
0	H	0.674911	0.673716	0.0615137
0	B	0.669201	0.334472	0.74517
0	B	0.336366	0.668721	0.246608
0	C	0.523966	0.23806	0.745168
0	C	0.765182	0.285448	0.744983
0	C	0.718371	0.479568	0.74541
0	C	0.481636	0.765134	0.246515
0	C	0.240387	0.717755	0.246848
0	C	0.287205	0.523617	0.246443
0	H	0.472767	0.289961	0.745091
0	H	0.712812	0.182235	0.744764
0	H	0.821719	0.530562	0.745442
0	H	0.532788	0.713193	0.246555
0	H	0.292782	0.820973	0.247046
0	H	0.183862	0.472624	0.2464
0	C	0.315987	0.97966	0.745056
0	C	0.0238277	0.337008	0.744945
0	C	0.667988	0.687335	0.745301
0	C	0.689569	0.0235432	0.246683
0	C	0.981689	0.666065	0.246927
0	C	0.337546	0.315832	0.246527
0	H	0.215081	0.912435	0.744937
0	H	0.0914875	0.304149	0.744826
0	H	0.702237	0.788192	0.745182
0	H	0.790462	0.0908252	0.24684
0	H	0.914035	0.698964	0.24707
0	H	0.303257	0.214968	0.246649
0	H	0.36249	0.923736	0.745117
0	H	0.0793521	0.43964	0.745104
0	H	0.565359	0.641252	0.745275
0	H	0.642977	0.0793907	0.24661
0	H	0.926244	0.563531	0.246741
0	H	0.440178	0.36189	0.246524
