#******************************************
#
# CIF file created by Zeo++
# Zeo++ is an open source package to
# analyze microporous materials
#
#*******************************************

_cell_length_a		17.1676(0)
_cell_length_b		17.1697(0)
_cell_length_c		7.16009(0)
_cell_angle_alpha		90(0)
_cell_angle_beta		90(0)
_cell_angle_gamma		120.032(0)

_symmetry_space_group_name_H-M		'P1'
_symmetry_Int_Tables_number		1
_symmetry_cell_setting		Monoclinic

loop_
_symmetry_equiv_pos_as_xyz
'+x,+y,+z'

loop_
_atom_site_label
_atom_site_type_symbol
_atom_site_fract_x
_atom_site_fract_y
_atom_site_fract_z
0	B	0.578032	0.320862	0.166586
0	B	0.679876	0.256894	0.166708
0	B	0.743914	0.422692	0.166749
0	B	0.423233	0.679959	0.166501
0	B	0.32136	0.743914	0.166709
0	B	0.257341	0.57813	0.166816
0	B	0.679807	0.422677	0.655173
0	B	0.743941	0.321023	0.654818
0	B	0.578025	0.256806	0.655695
0	B	0.321426	0.578141	0.655218
0	B	0.257298	0.679783	0.655084
0	B	0.423225	0.744007	0.655736
0	N	0.590572	0.24416	0.162641
0	N	0.756683	0.346138	0.163126
0	N	0.654739	0.410271	0.163057
0	N	0.410686	0.756676	0.162612
0	N	0.244544	0.654671	0.163206
0	N	0.346522	0.590562	0.163068
0	N	0.756671	0.410367	0.64935
0	N	0.654637	0.244098	0.650641
0	N	0.590388	0.346038	0.651127
0	N	0.244548	0.590433	0.649524
0	N	0.346605	0.756701	0.650744
0	N	0.410848	0.654771	0.651152
0	H	0.536873	0.181899	0.161523
0	H	0.818902	0.354782	0.16339
0	H	0.646148	0.463833	0.162803
0	H	0.464349	0.818895	0.161446
0	H	0.182334	0.646025	0.16352
0	H	0.355086	0.536974	0.162797
0	H	0.818786	0.463921	0.648887
0	H	0.646119	0.18205	0.650926
0	H	0.536868	0.354592	0.65174
0	H	0.182442	0.536886	0.649031
0	H	0.355112	0.818754	0.65099
0	H	0.464351	0.646194	0.651739
0	C	0.479671	0.306432	0.18361
0	C	0.694324	0.172983	0.183494
0	C	0.827892	0.521084	0.183438
0	C	0.521614	0.694411	0.183363
0	C	0.306914	0.827826	0.183443
0	C	0.17338	0.479726	0.18349
0	C	0.694246	0.520855	0.67695
0	C	0.827713	0.306612	0.67638
0	C	0.479736	0.173075	0.677165
0	C	0.306975	0.479963	0.676877
0	C	0.173542	0.694224	0.676647
0	C	0.521524	0.827729	0.677174
0	C	0.405229	0.226299	0.123295
0	C	0.774475	0.178756	0.123055
0	C	0.822122	0.595438	0.123053
0	C	0.596037	0.774532	0.122984
0	C	0.226766	0.822057	0.123014
0	C	0.179131	0.40537	0.123069
0	C	0.774739	0.595654	0.618707
0	C	0.821926	0.226198	0.618158
0	C	0.405092	0.178865	0.618729
0	C	0.226553	0.405221	0.618654
0	C	0.179362	0.774622	0.618374
0	C	0.596166	0.82195	0.6187
0	H	0.413598	0.173897	0.0559689
0	H	0.826878	0.239623	0.0559107
0	H	0.761282	0.586927	0.0558016
0	H	0.587626	0.826794	0.0551843
0	H	0.174359	0.761175	0.0559257
0	H	0.239953	0.41389	0.0557022
0	H	0.82735	0.58746	0.551858
0	H	0.761172	0.173684	0.550869
0	H	0.413368	0.23973	0.552037
0	H	0.173892	0.413341	0.551854
0	H	0.240227	0.827192	0.551532
0	H	0.587882	0.761082	0.552009
0	C	0.318262	0.212287	0.147796
0	C	0.788588	0.105862	0.147866
0	C	0.895079	0.682497	0.147883
0	C	0.683075	0.788665	0.148091
0	C	0.212645	0.894943	0.147845
0	C	0.106193	0.318315	0.147975
0	C	0.788771	0.682459	0.645162
0	C	0.894616	0.211975	0.644973
0	C	0.318114	0.106086	0.645007
0	C	0.21253	0.31835	0.645141
0	C	0.106668	0.78886	0.644491
0	C	0.683149	0.894737	0.644997
0	H	0.260509	0.149599	0.101348
0	H	0.851312	0.110824	0.101647
0	H	0.89017	0.740258	0.101532
0	H	0.740832	0.85129	0.101458
0	H	0.149917	0.889983	0.101672
0	H	0.111107	0.260562	0.101574
0	H	0.851534	0.740395	0.599566
0	H	0.889673	0.149218	0.599346
0	H	0.26024	0.110978	0.599397
0	H	0.149742	0.260438	0.599526
0	H	0.111531	0.851419	0.598935
0	H	0.741025	0.88986	0.599354
0	C	0.305489	0.27855	0.232247
0	C	0.722273	0.0268166	0.23228
0	C	0.974054	0.695286	0.232158
0	C	0.695744	0.722426	0.232896
0	C	0.278973	0.973986	0.23227
0	C	0.0272405	0.305544	0.232343
0	C	0.722275	0.694833	0.72972
0	C	0.973481	0.278388	0.729936
0	C	0.30556	0.0271884	0.72944
0	C	0.27896	0.305979	0.729504
0	C	0.0275673	0.722239	0.728646
0	C	0.695688	0.973623	0.729526
0	H	0.238063	0.268063	0.251519
0	H	0.732843	0.969973	0.251972
0	H	0.0308982	0.762795	0.252578
0	H	0.763256	0.733141	0.253206
0	H	0.268387	0.0308194	0.251976
0	H	0.970416	0.238005	0.252781
0	H	0.732704	0.76225	0.749945
0	H	0.0303044	0.267856	0.750578
0	H	0.238126	0.970182	0.749469
0	H	0.268574	0.238598	0.749974
0	H	0.970651	0.732723	0.748628
0	H	0.763114	0.0306145	0.749609
0	C	0.380042	0.358939	0.291948
0	C	0.641909	0.0209056	0.291925
0	C	0.980032	0.620817	0.291853
0	C	0.621254	0.641964	0.292039
0	C	0.359335	0.979897	0.291945
0	C	0.0212376	0.380002	0.291882
0	C	0.641956	0.62013	0.788693
0	C	0.97922	0.358812	0.788589
0	C	0.380176	0.0214809	0.788806
0	C	0.35937	0.380744	0.788745
0	C	0.0219121	0.64199	0.788311
0	C	0.621055	0.979316	0.788821
0	H	0.369801	0.410027	0.359678
0	H	0.59077	0.959632	0.35964
0	H	0.0413162	0.631088	0.359675
0	H	0.631393	0.590731	0.359353
0	H	0.410474	0.0411613	0.359697
0	H	0.959892	0.369688	0.359552
0	H	0.590705	0.630051	0.856678
0	H	0.0404443	0.410094	0.856381
0	H	0.370109	0.960316	0.856718
0	H	0.410561	0.370793	0.856739
0	H	0.960717	0.590761	0.856308
0	H	0.631109	0.0404791	0.856719
0	C	0.466921	0.372767	0.267861
0	C	0.628028	0.0939256	0.267843
0	C	0.907045	0.533932	0.267444
0	C	0.534295	0.628054	0.267566
0	C	0.3732	0.906865	0.267866
0	C	0.0941929	0.466871	0.267456
0	C	0.628042	0.533175	0.762672
0	C	0.906347	0.372771	0.762461
0	C	0.467107	0.0944733	0.763284
0	C	0.373158	0.467518	0.762698
0	C	0.0948145	0.628047	0.762679
0	C	0.534134	0.906324	0.763297
0	H	0.524125	0.435376	0.316842
0	H	0.565449	0.0884313	0.317187
0	H	0.912546	0.476767	0.31613
0	H	0.477147	0.565339	0.316118
0	H	0.435761	0.912339	0.317287
0	H	0.0886918	0.524075	0.316084
0	H	0.565534	0.475982	0.811699
0	H	0.911633	0.435288	0.811461
0	H	0.524248	0.0892316	0.813109
0	H	0.435674	0.524879	0.811672
0	H	0.089567	0.565593	0.81212
0	H	0.476982	0.91156	0.813065
