#******************************************
#
# CIF file created by Zeo++
# Zeo++ is an open source package to
# analyze microporous materials
#
#*******************************************

_cell_length_a		19.1542(0)
_cell_length_b		16.2729(0)
_cell_length_c		11.7304(0)
_cell_angle_alpha		90(0)
_cell_angle_beta		102.238(0)
_cell_angle_gamma		90(0)

_symmetry_space_group_name_H-M		'P1'
_symmetry_Int_Tables_number		1
_symmetry_cell_setting		Monoclinic

loop_
_symmetry_equiv_pos_as_xyz
'+x,+y,+z'

loop_
_atom_site_label
_atom_site_type_symbol
_atom_site_fract_x
_atom_site_fract_y
_atom_site_fract_z
0	C	0.0716148	0.294264	0.046065
0	C	0.911392	0.295828	0.451461
0	C	0.908923	0.693623	0.946729
0	C	0.0692968	0.692073	0.540415
0	C	0.573895	0.789121	0.0460761
0	C	0.409448	0.790682	0.451641
0	C	0.40665	0.198757	0.94668
0	C	0.571235	0.197217	0.54027
0	C	0.143451	0.273402	0.00864197
0	C	0.837623	0.274547	0.481725
0	C	0.837033	0.714511	0.983966
0	C	0.143083	0.713414	0.510242
0	C	0.645728	0.7688	0.00839363
0	C	0.335605	0.770026	0.482006
0	C	0.334767	0.219099	0.984198
0	C	0.645095	0.217919	0.50999
0	C	0.123439	0.196506	0.928319
0	C	0.855351	0.197321	0.562076
0	C	0.857001	0.791404	0.0643175
0	C	0.125348	0.790587	0.429807
0	C	0.625906	0.691855	0.928047
0	C	0.353025	0.692726	0.562324
0	C	0.354545	0.296042	0.0645687
0	C	0.627666	0.295176	0.429587
0	C	0.0419839	0.1842	0.926248
0	C	0.937677	0.185583	0.572087
0	C	0.938439	0.80381	0.0663178
0	C	0.043021	0.802322	0.419827
0	C	0.544543	0.679086	0.926093
0	C	0.435276	0.680446	0.572383
0	C	0.435893	0.308914	0.0664414
0	C	0.545416	0.307454	0.419565
0	C	0.0317217	0.151226	0.0462737
0	C	0.952507	0.152805	0.454825
0	C	0.948554	0.836735	0.946159
0	C	0.0282639	0.835127	0.537135
0	C	0.534447	0.645878	0.0460676
0	C	0.449994	0.647407	0.455204
0	C	0.445844	0.342068	0.946339
0	C	0.53076	0.34051	0.536784
0	C	0.053251	0.227237	0.129711
0	C	0.932949	0.228793	0.370704
0	C	0.927265	0.760571	0.862955
0	C	0.0476836	0.759072	0.621168
0	C	0.555918	0.721768	0.12966
0	C	0.430533	0.72327	0.370895
0	C	0.424601	0.266039	0.862964
0	C	0.550099	0.264598	0.621014
0	C	0.0161264	0.274413	0.932013
0	C	0.963281	0.276082	0.569236
0	C	0.964379	0.713624	0.0607479
0	C	0.0174183	0.71183	0.422648
0	C	0.518464	0.769188	0.931964
0	C	0.461247	0.770781	0.569471
0	C	0.462053	0.218837	0.0607576
0	C	0.519444	0.217125	0.422448
0	C	0.178055	0.432083	0.782645
0	C	0.793181	0.431304	0.703081
0	C	0.80202	0.555877	0.209687
0	C	0.187936	0.556688	0.289212
0	C	0.680907	0.927503	0.78258
0	C	0.290367	0.926718	0.702971
0	C	0.299167	0.0604512	0.209749
0	C	0.690755	0.0612643	0.289342
0	C	0.165046	0.35098	0.827671
0	C	0.809451	0.350941	0.659351
0	C	0.815229	0.636937	0.164757
0	C	0.171452	0.637003	0.332802
0	C	0.667221	0.846518	0.827415
0	C	0.307247	0.846489	0.659452
0	C	0.313052	0.141388	0.164996
0	C	0.673653	0.141452	0.332716
0	C	0.203094	0.495319	0.854691
0	C	0.76986	0.494786	0.630321
0	C	0.777005	0.492672	0.137577
0	C	0.211179	0.493212	0.362029
0	C	0.706251	0.99064	0.854686
0	C	0.266832	0.990122	0.630154
0	C	0.273853	0.997337	0.137585
0	C	0.714217	0.997877	0.362214
0	N	0.222272	0.484165	0.97681
0	N	0.756328	0.484743	0.507992
0	N	0.758008	0.503835	0.0154484
0	N	0.224543	0.503272	0.484346
0	N	0.724798	0.979607	0.976945
0	N	0.253909	0.980225	0.507759
0	N	0.255489	0.0083762	0.0153131
0	N	0.72697	0.00778287	0.484606
0	C	0.197128	0.411861	0.0232714
0	C	0.784067	0.413085	0.464122
0	C	0.78325	0.576111	0.969098
0	C	0.196684	0.574907	0.52807
0	C	0.699195	0.907432	0.0231167
0	C	0.282184	0.908737	0.464226
0	C	0.28119	0.0805147	0.969252
0	C	0.698576	0.0792506	0.527992
0	C	0.169887	0.347496	0.954189
0	C	0.809022	0.348222	0.534094
0	C	0.810494	0.640433	0.0382783
0	C	0.171757	0.639735	0.457998
0	C	0.672026	0.843044	0.95396
0	C	0.307057	0.843843	0.53425
0	C	0.308366	0.144868	0.0384954
0	C	0.67372	0.1441	0.457876
0	C	0.136285	0.202732	0.806549
0	C	0.838789	0.202907	0.681406
0	C	0.844196	0.785135	0.18609
0	C	0.141864	0.784953	0.310462
0	C	0.638312	0.698283	0.806066
0	C	0.336677	0.698457	0.68175
0	C	0.342178	0.289573	0.186551
0	C	0.643959	0.289398	0.310135
0	C	0.132067	0.133917	0.73995
0	C	0.841454	0.133687	0.746802
0	C	0.848501	0.853924	0.252766
0	C	0.139066	0.854129	0.244947
0	C	0.633809	0.629549	0.739229
0	C	0.33958	0.6293	0.747357
0	C	0.346786	0.358278	0.253472
0	C	0.640919	0.358507	0.244408
0	N	0.1449	0.135121	0.62413
0	N	0.826436	0.134263	0.861223
0	N	0.835655	0.85269	0.36857
0	N	0.154007	0.853517	0.130476
0	N	0.645805	0.631113	0.623039
0	N	0.32512	0.630139	0.862001
0	N	0.334752	0.356701	0.36963
0	N	0.655297	0.357625	0.129712
0	C	0.145329	0.213486	0.5706
0	C	0.82484	0.212451	0.914804
0	C	0.835159	0.774297	0.422002
0	C	0.155714	0.775298	0.0770538
0	C	0.64595	0.709463	0.569655
0	C	0.323423	0.708289	0.915373
0	C	0.334483	0.278324	0.422903
0	C	0.657124	0.27944	0.0765068
0	C	0.150891	0.283437	0.634051
0	C	0.820432	0.282696	0.852176
0	C	0.829537	0.704378	0.358482
0	C	0.160272	0.705095	0.139807
0	C	0.651853	0.779324	0.633333
0	C	0.318697	0.778466	0.852524
0	C	0.328517	0.208496	0.359158
0	C	0.66201	0.209314	0.13948
0	C	0.151189	0.282778	0.759022
0	C	0.822508	0.282684	0.728091
0	C	0.829197	0.705091	0.233498
0	C	0.158252	0.70518	0.263908
0	C	0.652893	0.778468	0.758556
0	C	0.320502	0.778314	0.728338
0	C	0.32748	0.209398	0.233939
0	C	0.660255	0.209535	0.263693
0	C	0.120903	0.108903	0.213803
0	C	0.867809	0.109958	0.28234
0	C	0.858081	0.87814	0.779726
0	C	0.114181	0.877374	0.708604
0	C	0.623767	0.603454	0.213259
0	C	0.36511	0.604478	0.283039
0	C	0.355289	0.383628	0.780199
0	C	0.616817	0.382888	0.707958
0	C	0.0790717	0.0788486	0.101124
0	C	0.907322	0.0797933	0.396562
0	C	0.900799	0.908805	0.891359
0	C	0.0737423	0.907965	0.595272
0	C	0.581791	0.573456	0.100686
0	C	0.404788	0.574364	0.397155
0	C	0.398134	0.41421	0.891751
0	C	0.57622	0.413406	0.594722
0	C	0.113679	0.198087	0.230259
0	C	0.875295	0.19917	0.266389
0	C	0.866805	0.789305	0.762171
0	C	0.105336	0.788483	0.725649
0	C	0.616545	0.692595	0.229861
0	C	0.372592	0.693656	0.266986
0	C	0.363934	0.29482	0.762557
0	C	0.608047	0.294019	0.725057
0	H	0.0701013	0.356892	0.0796528
0	H	0.914119	0.358487	0.418532
0	H	0.91049	0.630953	0.9133
0	H	0.0665815	0.629398	0.57329
0	H	0.572188	0.851686	0.0798383
0	H	0.412442	0.853268	0.418569
0	H	0.408411	0.136155	0.913078
0	H	0.568247	0.134613	0.573291
0	H	0.185249	0.254323	0.0861764
0	H	0.797903	0.255919	0.401311
0	H	0.795291	0.733612	0.906391
0	H	0.182773	0.732105	0.590644
0	H	0.687622	0.749851	0.0858938
0	H	0.295836	0.751538	0.401529
0	H	0.292926	0.238063	0.906659
0	H	0.684843	0.236461	0.59045
0	H	0.154601	0.14298	0.973028
0	H	0.825437	0.143961	0.514827
0	H	0.825747	0.844877	0.0196427
0	H	0.155295	0.843956	0.47698
0	H	0.657288	0.638435	0.972611
0	H	0.322898	0.639496	0.515078
0	H	0.323071	0.349406	0.0200391
0	H	0.657834	0.348407	0.476755
0	H	0.0139607	0.148134	0.851515
0	H	0.963472	0.14968	0.648468
0	H	0.966452	0.83998	0.14095
0	H	0.0172074	0.838216	0.343451
0	H	0.516614	0.642938	0.851361
0	H	0.460898	0.644436	0.648782
0	H	0.463813	0.345161	0.14108
0	H	0.519776	0.343452	0.343174
0	H	0.974627	0.135645	0.0388012
0	H	0.0099941	0.137786	0.466879
0	H	0.00556587	0.852649	0.953514
0	H	0.970827	0.850358	0.525148
0	H	0.477407	0.630132	0.0386113
0	H	0.507434	0.632234	0.467357
0	H	0.502809	0.358116	0.953683
0	H	0.473362	0.355863	0.524678
0	H	0.00705684	0.248488	0.165071
0	H	0.980484	0.250287	0.339341
0	H	0.973524	0.739325	0.827807
0	H	0.000102906	0.737559	0.652339
0	H	0.50981	0.742721	0.165377
0	H	0.477981	0.744397	0.339073
0	H	0.470759	0.24509	0.827429
0	H	0.502616	0.243453	0.652674
0	H	0.960049	0.280354	0.938609
0	H	0.0200002	0.282803	0.567907
0	H	0.020468	0.707702	0.0542097
0	H	0.960688	0.705101	0.423936
0	H	0.462386	0.77478	0.938674
0	H	0.518016	0.77699	0.568106
0	H	0.518141	0.213265	0.0540924
0	H	0.462664	0.210913	0.423769
0	H	0.022807	0.31192	0.857099
0	H	0.953588	0.313134	0.642707
0	H	0.957703	0.67617	0.135714
0	H	0.027117	0.674794	0.34917
0	H	0.524986	0.806858	0.857011
0	H	0.451746	0.808047	0.642961
0	H	0.455537	0.181217	0.135757
0	H	0.528949	0.179875	0.34895
0	H	0.165881	0.440147	0.688665
0	H	0.800859	0.438479	0.796899
0	H	0.814009	0.54781	0.303662
0	H	0.180489	0.549533	0.195434
0	H	0.669265	0.935588	0.688542
0	H	0.297527	0.933846	0.796776
0	H	0.310624	0.0523738	0.303774
0	H	0.683818	0.0541468	0.195562
0	H	0.212798	0.55671	0.823035
0	H	0.757326	0.555419	0.661368
0	H	0.767208	0.43129	0.169166
0	H	0.22375	0.432575	0.331047
0	H	0.716685	0.0518004	0.823054
0	H	0.253637	0.0505287	0.661102
0	H	0.263317	0.936195	0.169143
0	H	0.727456	0.937466	0.331338
0	H	0.226572	0.535504	0.0270622
0	H	0.753267	0.53649	0.458522
0	H	0.753651	0.452503	0.965185
0	H	0.227553	0.451524	0.533801
0	H	0.728554	0.0311007	0.0268336
0	H	0.251466	0.0321191	0.458669
0	H	0.25168	0.956901	0.965393
0	H	0.729368	0.955885	0.533678
0	H	0.203831	0.410354	0.118028
0	H	0.781176	0.412231	0.370056
0	H	0.77662	0.577655	0.87435
0	H	0.199461	0.575791	0.622101
0	H	0.705605	0.906032	0.117824
0	H	0.27962	0.908029	0.370249
0	H	0.274848	0.0819617	0.874553
0	H	0.701045	0.0799731	0.621944
0	H	0.121493	0.0731212	0.77183
0	H	0.852333	0.0730886	0.714642
0	H	0.85915	0.914704	0.220929
0	H	0.128094	0.914718	0.277035
0	H	0.623596	0.568651	0.771096
0	H	0.350272	0.568637	0.715261
0	H	0.3571	0.419161	0.221656
0	H	0.630145	0.419171	0.276418
0	H	0.119833	0.0895493	0.571069
0	H	0.851001	0.0886056	0.91469
0	H	0.860756	0.898219	0.421689
0	H	0.129304	0.899067	0.0769413
0	H	0.621498	0.585081	0.570222
0	H	0.349025	0.584143	0.915353
0	H	0.359123	0.402667	0.422524
0	H	0.63127	0.403523	0.0762882
0	H	0.144103	0.212414	0.476821
0	H	0.823693	0.210825	0.0075185
0	H	0.83635	0.77534	0.51576
0	H	0.156803	0.776855	0.984313
0	H	0.644365	0.708476	0.47576
0	H	0.322382	0.706723	0.0081057
0	H	0.336002	0.279286	0.516772
0	H	0.658115	0.280935	0.983751
0	H	0.154589	0.342971	0.593818
0	H	0.815698	0.341892	0.892632
0	H	0.82581	0.644827	0.398637
0	H	0.165056	0.645884	0.0994375
0	H	0.655516	0.838896	0.593132
0	H	0.31375	0.837673	0.892876
0	H	0.324774	0.14891	0.399271
0	H	0.667023	0.150089	0.0992153
0	H	0.156844	0.0710057	0.273247
0	H	0.832965	0.0720295	0.221299
0	H	0.820223	0.915182	0.722151
0	H	0.150832	0.914611	0.767947
0	H	0.65982	0.565549	0.272478
0	H	0.330135	0.566561	0.222197
0	H	0.317419	0.420719	0.722766
0	H	0.653508	0.420151	0.767158
0	H	0.115683	0.058541	0.0441335
0	H	0.869283	0.0580251	0.450143
0	H	0.864891	0.929653	0.949192
0	H	0.111043	0.930311	0.540779
0	H	0.618228	0.553217	0.0434547
0	H	0.366914	0.552679	0.450988
0	H	0.362389	0.435019	0.949786
0	H	0.613356	0.435703	0.540005
0	H	0.0463607	0.0242739	0.111608
0	H	0.941368	0.0259607	0.387742
0	H	0.933263	0.963255	0.87921
0	H	0.0397921	0.961582	0.605642
0	H	0.549049	0.518941	0.111229
0	H	0.438845	0.520578	0.388251
0	H	0.430673	0.468567	0.879572
0	H	0.542217	0.466942	0.605166
0	H	0.102397	0.213398	0.316887
0	H	0.889818	0.214204	0.182062
0	H	0.878983	0.775351	0.675706
0	H	0.0899478	0.774815	0.80974
0	H	0.60563	0.707878	0.316726
0	H	0.38665	0.708694	0.182354
0	H	0.375692	0.28082	0.675825
0	H	0.59317	0.280288	0.809494
0	H	0.165111	0.230085	0.228477
0	H	0.823059	0.23072	0.263246
0	H	0.815815	0.755956	0.762299
0	H	0.157129	0.755693	0.730367
0	H	0.667883	0.724618	0.227659
0	H	0.320441	0.725225	0.264425
0	H	0.313011	0.26152	0.763202
0	H	0.659786	0.261277	0.729112
