#******************************************
#
# CIF file created by Zeo++
# Zeo++ is an open source package to
# analyze microporous materials
#
#*******************************************

_cell_length_a		15.0919(0)
_cell_length_b		15.1105(0)
_cell_length_c		13.8673(0)
_cell_angle_alpha		90(0)
_cell_angle_beta		90(0)
_cell_angle_gamma		90(0)

_symmetry_space_group_name_H-M		'P1'
_symmetry_Int_Tables_number		1
_symmetry_cell_setting		Monoclinic

loop_
_symmetry_equiv_pos_as_xyz
'+x,+y,+z'

loop_
_atom_site_label
_atom_site_type_symbol
_atom_site_fract_x
_atom_site_fract_y
_atom_site_fract_z
0	Br	0.250579	0.22738	0.355728
0	Br	0.746153	0.768244	0.355682
0	Br	0.227833	0.745109	0.646079
0	Br	0.768666	0.250541	0.646166
0	Br	0.246444	0.727196	0.145048
0	Br	0.750179	0.268527	0.145164
0	Br	0.269045	0.245686	0.856968
0	Br	0.727516	0.750052	0.856912
0	Br	0.456476	0.116977	0.395985
0	Br	0.540156	0.878492	0.395878
0	Br	0.117199	0.539563	0.605909
0	Br	0.879288	0.45597	0.6058
0	Br	0.0411561	0.616174	0.104244
0	Br	0.955547	0.379362	0.104358
0	Br	0.379956	0.0403737	0.897514
0	Br	0.61702	0.956129	0.898172
0	N	0.435286	0.372055	0.506879
0	N	0.561141	0.622974	0.505658
0	N	0.372507	0.560568	0.494796
0	N	0.623664	0.43517	0.495223
0	N	0.0612957	0.871803	0.994416
0	N	0.93574	0.123137	0.996054
0	N	0.1242	0.060813	0.00759561
0	N	0.873045	0.93479	0.00698095
0	C	0.354397	0.360928	0.470236
0	C	0.642192	0.634431	0.469578
0	C	0.361409	0.641396	0.531374
0	C	0.634946	0.35427	0.531629
0	C	0.142298	0.860733	0.0308059
0	C	0.854528	0.13459	0.031701
0	C	0.135422	0.141762	0.971363
0	C	0.861515	0.85382	0.970903
0	C	0.347382	0.27263	0.423196
0	C	0.649267	0.722869	0.422885
0	C	0.273041	0.648445	0.578509
0	C	0.723389	0.347176	0.578588
0	C	0.149608	0.772275	0.0774699
0	C	0.847106	0.223237	0.077918
0	C	0.223904	0.148953	0.924516
0	C	0.772839	0.846721	0.924428
0	C	0.426281	0.230589	0.43825
0	C	0.570304	0.764787	0.437906
0	C	0.230936	0.56964	0.563525
0	C	0.765492	0.425962	0.563556
0	C	0.0708061	0.730078	0.0624488
0	C	0.925957	0.265336	0.0629184
0	C	0.265988	0.0701334	0.939406
0	C	0.730912	0.925574	0.939507
0	C	0.485683	0.293328	0.488828
0	C	0.510812	0.701884	0.488144
0	C	0.293697	0.510252	0.512937
0	C	0.702683	0.485339	0.513035
0	C	0.0110582	0.792885	0.0124223
0	C	0.985828	0.202307	0.0133833
0	C	0.203038	0.0104614	0.989398
0	C	0.794039	0.985127	0.989407
0	C	0.281586	0.423571	0.487016
0	C	0.714991	0.571894	0.486757
0	C	0.42415	0.714092	0.514502
0	C	0.57246	0.281351	0.514845
0	C	0.215123	0.923533	0.014365
0	C	0.781739	0.0719002	0.014835
0	C	0.072652	0.214571	0.987792
0	C	0.924082	0.780823	0.987287
0	C	0.190968	0.388643	0.476322
0	C	0.805646	0.60681	0.476198
0	C	0.38922	0.804626	0.525445
0	C	0.607537	0.190856	0.525576
0	C	0.305704	0.888301	0.024758
0	C	0.691144	0.107205	0.0250739
0	C	0.107681	0.305126	0.977047
0	C	0.888891	0.690308	0.976891
0	C	0.154	0.329519	0.543747
0	C	0.842633	0.665902	0.543674
0	C	0.330011	0.841611	0.458064
0	C	0.666723	0.153887	0.458159
0	C	0.342397	0.828916	0.957389
0	C	0.654435	0.166563	0.957659
0	C	0.166961	0.341988	0.0445147
0	C	0.829613	0.65351	0.0443516
0	C	0.0689768	0.294964	0.52784
0	C	0.927652	0.700471	0.527777
0	C	0.2954	0.926526	0.47401
0	C	0.701329	0.0689612	0.474015
0	C	0.427189	0.793714	0.973475
0	C	0.569625	0.20174	0.973695
0	C	0.202033	0.426731	0.0284527
0	C	0.794554	0.568745	0.0283599
0	C	0.020811	0.318636	0.445534
0	C	0.975849	0.67681	0.445492
0	C	0.319161	0.974662	0.556265
0	C	0.677572	0.0207716	0.55627
0	C	0.475471	0.817071	0.0558148
0	C	0.521277	0.178393	0.0559829
0	C	0.178693	0.474852	0.946023
0	C	0.817913	0.520527	0.946037
0	C	0.0570053	0.37917	0.379344
0	C	0.939673	0.616256	0.379309
0	C	0.379765	0.938455	0.622428
0	C	0.616963	0.0569497	0.622454
0	C	0.439689	0.878023	0.121787
0	C	0.557044	0.117432	0.121964
0	C	0.117795	0.43897	0.880036
0	C	0.878847	0.556359	0.87999
0	C	0.141191	0.414743	0.394264
0	C	0.855467	0.580708	0.394179
0	C	0.415335	0.854342	0.607502
0	C	0.581396	0.141066	0.607591
0	C	0.355706	0.914071	0.10682
0	C	0.641042	0.0813986	0.10705
0	C	0.0818321	0.355012	0.894999
0	C	0.914808	0.640336	0.894879
0	C	0.202568	0.304336	0.633394
0	C	0.794047	0.69105	0.633313
0	C	0.30477	0.793171	0.368396
0	C	0.69189	0.202326	0.368468
0	C	0.293996	0.803678	0.867628
0	C	0.702785	0.191782	0.867872
0	C	0.192204	0.293698	0.134314
0	C	0.804417	0.701783	0.134174
0	C	0.931317	0.280367	0.426768
0	C	0.0653439	0.715091	0.426732
0	C	0.280917	0.0641149	0.574936
0	C	0.715765	0.931293	0.5749
0	C	0.564594	0.778023	0.074907
0	C	0.432131	0.217406	0.0750322
0	C	0.217738	0.56389	0.926893
0	C	0.778905	0.431473	0.926958
0	C	0.179153	0.478543	0.323041
0	C	0.817539	0.516875	0.322992
0	C	0.47922	0.816413	0.678706
0	C	0.517484	0.178927	0.678798
0	C	0.318298	0.977964	0.1783
0	C	0.678383	0.0174223	0.178475
0	C	0.0179632	0.317595	0.823452
0	C	0.978673	0.677712	0.82332
0	H	0.0404725	0.249262	0.579864
0	H	0.95615	0.746158	0.579833
0	H	0.249613	0.954969	0.421986
0	H	0.747075	0.0405277	0.421989
0	H	0.455338	0.747687	0.921551
0	H	0.541466	0.247715	0.92172
0	H	0.247972	0.454982	0.0804551
0	H	0.748575	0.540558	0.080377
0	H	0.0185574	0.39853	0.316427
0	H	0.978141	0.596879	0.316416
0	H	0.399189	0.976843	0.685347
0	H	0.597527	0.0185097	0.685323
0	H	0.478282	0.897283	0.184644
0	H	0.518404	0.0981432	0.184764
0	H	0.0985071	0.477442	0.817129
0	H	0.898152	0.517804	0.817159
0	H	0.270352	0.330392	0.63738
0	H	0.726251	0.665026	0.637236
0	H	0.330762	0.725437	0.364383
0	H	0.665815	0.270026	0.364441
0	H	0.226239	0.829729	0.863404
0	H	0.770516	0.165687	0.863602
0	H	0.166135	0.22602	0.138578
0	H	0.830545	0.769436	0.138465
0	H	0.167443	0.32962	0.697577
0	H	0.82914	0.665724	0.697499
0	H	0.330146	0.828261	0.304247
0	H	0.666547	0.167177	0.304341
0	H	0.329366	0.828745	0.80348
0	H	0.667358	0.166746	0.803757
0	H	0.167052	0.329054	0.198417
0	H	0.829533	0.666391	0.198263
0	H	0.207238	0.232005	0.641263
0	H	0.789416	0.763384	0.641222
0	H	0.232342	0.788603	0.360509
0	H	0.764315	0.206954	0.360558
0	H	0.289337	0.731305	0.859912
0	H	0.707457	0.264147	0.860145
0	H	0.264667	0.289066	0.142056
0	H	0.731973	0.706457	0.141944
0	H	0.911647	0.230574	0.480439
0	H	0.0850152	0.76488	0.480412
0	H	0.231107	0.0837627	0.521243
0	H	0.765549	0.911612	0.52119
0	H	0.58399	0.72802	0.0213373
0	H	0.412717	0.267378	0.0214365
0	H	0.267807	0.583302	0.98044
0	H	0.728815	0.412078	0.980485
0	H	0.880118	0.332289	0.428088
0	H	0.116528	0.663154	0.428065
0	H	0.332952	0.115204	0.573546
0	H	0.663695	0.880249	0.573521
0	H	0.616298	0.829456	0.0737119
0	H	0.380455	0.165953	0.0738516
0	H	0.166219	0.615504	0.928085
0	H	0.83042	0.379857	0.928194
0	H	0.928276	0.248716	0.355415
0	H	0.0683971	0.746732	0.355379
0	H	0.249224	0.0672989	0.646294
0	H	0.747464	0.928088	0.64625
0	H	0.567198	0.746379	0.146283
0	H	0.429502	0.249067	0.146399
0	H	0.249377	0.566499	0.855496
0	H	0.747285	0.428826	0.855549
0	H	0.242488	0.454747	0.293366
0	H	0.754164	0.540608	0.293358
0	H	0.455378	0.753166	0.70838
0	H	0.541277	0.242191	0.708492
0	H	0.254918	0.954458	0.208114
0	H	0.741758	0.0408822	0.208367
0	H	0.0416194	0.254361	0.793593
0	H	0.954986	0.740933	0.79344
0	H	0.13515	0.491151	0.261453
0	H	0.861518	0.504295	0.261375
0	H	0.491871	0.860367	0.740299
0	H	0.504853	0.134956	0.740368
0	H	0.362567	0.990147	0.239784
0	H	0.634077	0.00518286	0.239909
0	H	0.00572332	0.361826	0.76199
0	H	0.990921	0.633477	0.761867
0	H	0.19236	0.543332	0.356439
0	H	0.804412	0.452078	0.356405
0	H	0.544069	0.80321	0.645287
0	H	0.452621	0.192095	0.645387
0	H	0.305414	0.042896	0.145149
0	H	0.691261	0.952492	0.145221
0	H	0.952908	0.304595	0.856584
0	H	0.0436438	0.690729	0.856394
