#******************************************
#
# CIF file created by Zeo++
# Zeo++ is an open source package to
# analyze microporous materials
#
#*******************************************

_cell_length_a		8.3763(0)
_cell_length_b		16.9555(0)
_cell_length_c		20.5158(0)
_cell_angle_alpha		109.808(0)
_cell_angle_beta		93.3805(0)
_cell_angle_gamma		101.297(0)

_symmetry_space_group_name_H-M		'P1'
_symmetry_Int_Tables_number		1
_symmetry_cell_setting		Triclinic

loop_
_symmetry_equiv_pos_as_xyz
'+x,+y,+z'

loop_
_atom_site_label
_atom_site_type_symbol
_atom_site_fract_x
_atom_site_fract_y
_atom_site_fract_z
0	N	0.00271026	0.116525	0.27693
0	N	0.961139	0.92873	0.74969
0	C	0.00154128	0.114266	0.202002
0	C	0.962302	0.930971	0.824619
0	C	0.137247	0.185981	0.199889
0	C	0.826587	0.859249	0.826716
0	H	0.117283	0.206783	0.15586
0	H	0.846562	0.838408	0.870724
0	C	0.274156	0.22054	0.247079
0	C	0.68965	0.824748	0.779553
0	C	0.288867	0.192807	0.306448
0	C	0.674935	0.852503	0.720193
0	H	0.408142	0.210869	0.33804
0	H	0.555555	0.83445	0.688567
0	C	0.155558	0.145345	0.321599
0	C	0.808302	0.89991	0.705019
0	N	0.842782	0.128541	0.174766
0	N	0.121037	0.916674	0.851853
0	C	0.768296	0.195699	0.22026
0	C	0.195388	0.849467	0.806348
0	H	0.864807	0.249091	0.25671
0	H	0.0988385	0.796115	0.769889
0	H	0.67913	0.172105	0.250738
0	H	0.284537	0.873004	0.775881
0	H	0.703185	0.222248	0.187019
0	H	0.260431	0.822862	0.839572
0	C	0.0100091	0.0210349	0.147644
0	C	0.953872	0.0242128	0.878992
0	C	0.118879	0.0314632	0.0921146
0	C	0.845073	0.013775	0.934539
0	H	0.248369	0.0585185	0.114646
0	H	0.715523	0.98688	0.912065
0	H	0.0818064	0.0736351	0.0665138
0	H	0.881988	0.971455	0.96003
0	H	0.111196	0.969221	0.0504509
0	H	0.853016	0.0759907	0.976251
0	C	0.0720521	0.965944	0.184106
0	C	0.891735	0.0792705	0.842532
0	H	0.188391	0.000358818	0.21836
0	H	0.775305	0.0448829	0.808338
0	H	0.0939315	0.906517	0.146083
0	H	0.869946	0.138715	0.880551
0	H	0.982282	0.946233	0.215911
0	H	0.981334	0.0988927	0.810657
0	C	0.853801	0.0830718	0.300435
0	C	0.110074	0.962087	0.726175
0	O	0.76163	0.0161263	0.262652
0	O	0.202408	0.0290163	0.763964
0	C	0.815955	0.135447	0.369949
0	C	0.147841	0.909722	0.656642
0	C	0.71331	0.0924612	0.405121
0	C	0.250368	0.952691	0.621436
0	H	0.671325	0.0223506	0.382637
0	H	0.292386	0.0227966	0.643895
0	C	0.664217	0.13933	0.467688
0	C	0.299368	0.905787	0.558833
0	H	0.582954	0.106373	0.494727
0	H	0.380456	0.938731	0.531736
0	C	0.716963	0.229145	0.495424
0	C	0.246768	0.815971	0.531181
0	H	0.675988	0.265947	0.544121
0	H	0.287718	0.779144	0.482483
0	C	0.82026	0.271946	0.460783
0	C	0.143619	0.773189	0.565863
0	H	0.86067	0.341877	0.482468
0	H	0.103291	0.703253	0.544231
0	C	0.870162	0.225389	0.398201
0	C	0.0936534	0.819779	0.62843
0	H	0.950565	0.259064	0.371294
0	H	0.0132666	0.786108	0.655343
0	C	0.1684	0.121596	0.384868
0	C	0.795526	0.923631	0.641734
0	C	0.111408	0.0367718	0.381985
0	C	0.852517	0.00845081	0.644595
0	H	0.0533324	0.985876	0.332592
0	H	0.910581	0.0593604	0.69399
0	C	0.130035	0.0171549	0.442485
0	C	0.833926	0.0280127	0.584069
0	H	0.0845426	0.951424	0.440398
0	H	0.879415	0.093735	0.58613
0	C	0.206659	0.0814863	0.505842
0	C	0.757337	0.963653	0.520723
0	H	0.220039	0.0657126	0.552823
0	H	0.743975	0.979397	0.473729
0	C	0.265772	0.165805	0.508747
0	C	0.698241	0.879343	0.517848
0	H	0.328623	0.216392	0.557671
0	H	0.635412	0.828738	0.468934
0	C	0.246058	0.18584	0.448561
0	C	0.717911	0.859349	0.57806
0	H	0.291949	0.251871	0.451214
0	H	0.672044	0.793311	0.575404
0	C	0.409465	0.287321	0.241035
0	C	0.554387	0.757899	0.785536
0	C	0.49488	0.355581	0.301049
0	C	0.469191	0.689654	0.725472
0	H	0.460959	0.360077	0.352452
0	H	0.503219	0.685227	0.674095
0	C	0.622506	0.418372	0.295066
0	C	0.341596	0.626767	0.731359
0	H	0.686376	0.471986	0.341803
0	H	0.277914	0.573169	0.684583
0	C	0.666461	0.41336	0.229333
0	C	0.297437	0.631671	0.797035
0	H	0.766916	0.462121	0.224873
0	H	0.197	0.58284	0.801412
0	C	0.581505	0.345786	0.169386
0	C	0.382198	0.699242	0.857043
0	H	0.616219	0.341903	0.11818
0	H	0.347319	0.703044	0.908213
0	C	0.453269	0.282971	0.175049
0	C	0.510397	0.76214	0.851473
0	H	0.387722	0.230122	0.128132
0	H	0.575784	0.814969	0.898452
0	C	0.740173	0.0479012	0.131106
0	C	0.223718	0.997313	0.895503
0	C	0.833071	0.98325	0.112906
0	C	0.13087	0.0619839	0.913701
0	C	0.758937	0.900789	0.0681332
0	C	0.205056	0.144453	0.958463
0	H	0.827409	0.85038	0.0542114
0	H	0.13658	0.194861	0.972383
0	C	0.592337	0.882368	0.0400039
0	C	0.37165	0.16285	0.986589
0	H	0.533242	0.817399	0.00502641
0	H	0.430793	0.227821	0.0215479
0	C	0.504082	0.946529	0.0564074
0	C	0.459809	0.0986453	0.970208
0	H	0.376418	0.931986	0.0329956
0	H	0.587455	0.113163	0.993641
0	C	0.576324	0.0305191	0.102838
0	C	0.387543	0.0146628	0.923789
0	H	0.506064	0.0799331	0.115637
0	H	0.457711	0.965205	0.911013
0	N	0.198164	0.64697	0.279677
0	N	0.765983	0.398277	0.746996
0	C	0.25004	0.568304	0.286203
0	C	0.714118	0.476925	0.740442
0	C	0.188117	0.491923	0.21937
0	C	0.776131	0.553333	0.807255
0	H	0.255111	0.44089	0.211392
0	H	0.709139	0.604365	0.815199
0	C	0.0599214	0.485793	0.173669
0	C	0.904259	0.559451	0.852988
0	C	0.980937	0.557634	0.185507
0	C	0.98317	0.487584	0.841198
0	H	0.865254	0.547135	0.153467
0	H	0.0987947	0.498062	0.873281
0	C	0.0503587	0.635216	0.236042
0	C	0.913775	0.410022	0.790649
0	N	0.433709	0.583287	0.298142
0	N	0.530432	0.461969	0.728547
0	C	0.536734	0.617728	0.253634
0	C	0.42748	0.427491	0.773047
0	H	0.472671	0.592784	0.199654
0	H	0.491552	0.452423	0.827028
0	H	0.651942	0.594824	0.252094
0	H	0.312256	0.45028	0.774586
0	H	0.570274	0.688785	0.272286
0	H	0.39403	0.356455	0.754428
0	C	0.193814	0.549718	0.354688
0	C	0.770238	0.495452	0.671915
0	C	0.0618141	0.596567	0.385113
0	C	0.902191	0.448565	0.641473
0	H	0.954479	0.580509	0.345821
0	H	0.00973063	0.464779	0.680717
0	H	0.10945	0.666845	0.40517
0	H	0.854658	0.378301	0.62156
0	H	0.0189095	0.57892	0.428825
0	H	0.944806	0.466057	0.597646
0	C	0.132216	0.452635	0.337719
0	C	0.831769	0.592467	0.688827
0	H	0.0191971	0.426085	0.300246
0	H	0.944763	0.619121	0.726314
0	H	0.106154	0.43916	0.385059
0	H	0.857852	0.60592	0.641445
0	H	0.224334	0.416954	0.315503
0	H	0.739553	0.628181	0.711
0	C	0.295788	0.732858	0.318295
0	C	0.66843	0.312386	0.708353
0	O	0.350137	0.752312	0.379301
0	O	0.61417	0.292933	0.647339
0	C	0.330586	0.793102	0.27962
0	C	0.633576	0.252101	0.747001
0	C	0.349035	0.881473	0.316969
0	C	0.615329	0.163751	0.709631
0	H	0.326487	0.903357	0.371413
0	H	0.638278	0.141934	0.655234
0	C	0.397314	0.94074	0.28446
0	C	0.566835	0.104409	0.742049
0	H	0.411529	0.00946846	0.313243
0	H	0.552719	0.0356927	0.713252
0	C	0.429432	0.912193	0.215121
0	C	0.534245	0.132867	0.811322
0	H	0.474776	0.959093	0.190755
0	H	0.488674	0.0859092	0.835607
0	C	0.407657	0.824073	0.177419
0	C	0.55587	0.22098	0.849069
0	H	0.431935	0.80247	0.12324
0	H	0.531279	0.242512	0.903205
0	C	0.357367	0.76433	0.209401
0	C	0.606421	0.280784	0.817164
0	H	0.340708	0.695622	0.180066
0	H	0.622905	0.349481	0.846523
0	C	0.966803	0.70783	0.249334
0	C	0.997282	0.337384	0.777315
0	C	0.942087	0.755185	0.317282
0	C	0.0222078	0.290185	0.709358
0	H	0.992226	0.742293	0.361977
0	H	0.972286	0.303215	0.664693
0	C	0.852152	0.818728	0.327925
0	C	0.111978	0.226575	0.698649
0	H	0.831723	0.854605	0.380741
0	H	0.132458	0.190789	0.645819
0	C	0.787104	0.835816	0.271123
0	C	0.176789	0.209284	0.75539
0	H	0.716907	0.885735	0.278997
0	H	0.246866	0.159308	0.747462
0	C	0.812278	0.789115	0.203388
0	C	0.151484	0.255869	0.823134
0	H	0.761906	0.802919	0.159165
0	H	0.201688	0.241934	0.867316
0	C	0.901819	0.72552	0.192453
0	C	0.0619448	0.319478	0.834132
0	H	0.921968	0.689652	0.139493
0	H	0.0416092	0.355209	0.887095
0	C	0.992784	0.407507	0.11118
0	C	0.971361	0.63777	0.915469
0	C	0.955733	0.414548	0.0460041
0	C	0.00833904	0.630765	0.980666
0	H	0.979253	0.47768	0.0411684
0	H	0.984865	0.567637	0.985525
0	C	0.88941	0.340618	0.987537
0	C	0.0744814	0.704732	0.0391243
0	H	0.86091	0.346066	0.936841
0	H	0.102982	0.699311	0.0898468
0	C	0.860484	0.259479	0.993508
0	C	0.103376	0.785849	0.0331199
0	H	0.810826	0.201707	0.946923
0	H	0.152943	0.843659	0.079712
0	C	0.896733	0.252138	0.0582871
0	C	0.0672172	0.793149	0.968329
0	H	0.873611	0.188921	0.0634617
0	H	0.0902854	0.856355	0.963119
0	C	0.962843	0.325908	0.117053
0	C	0.00125003	0.719353	0.909565
0	H	0.990341	0.31995	0.167615
0	H	0.973807	0.725255	0.858973
0	C	0.488651	0.6046	0.369978
0	C	0.47542	0.440604	0.656706
0	C	0.353435	0.582317	0.404643
0	C	0.610574	0.462822	0.621986
0	C	0.38063	0.590984	0.473991
0	C	0.583315	0.454084	0.552623
0	H	0.279568	0.574032	0.501316
0	H	0.684325	0.47095	0.525242
0	C	0.542479	0.621872	0.509522
0	C	0.421422	0.42325	0.517148
0	H	0.564049	0.627491	0.563886
0	H	0.399789	0.417584	0.462774
0	C	0.673311	0.643929	0.475364
0	C	0.290637	0.401291	0.551356
0	H	0.797654	0.668249	0.503529
0	H	0.166261	0.377036	0.52323
0	C	0.648716	0.636088	0.404909
0	C	0.315313	0.409153	0.621816
0	H	0.750972	0.654605	0.379034
0	H	0.213061	0.390687	0.647712
