#******************************************
#
# CIF file created by Zeo++
# Zeo++ is an open source package to
# analyze microporous materials
#
#*******************************************

_cell_length_a		11.2496(0)
_cell_length_b		16.7315(0)
_cell_length_c		24.647(0)
_cell_angle_alpha		90(0)
_cell_angle_beta		90(0)
_cell_angle_gamma		90(0)

_symmetry_space_group_name_H-M		'P1'
_symmetry_Int_Tables_number		1
_symmetry_cell_setting		Monoclinic

loop_
_symmetry_equiv_pos_as_xyz
'+x,+y,+z'

loop_
_atom_site_label
_atom_site_type_symbol
_atom_site_fract_x
_atom_site_fract_y
_atom_site_fract_z
0	C	0.670214	0.751866	0.964475
0	C	0.862844	0.249449	0.458725
0	C	0.362001	0.254829	0.571921
0	C	0.169608	0.749934	0.0655292
0	C	0.586363	0.783499	0.919905
0	C	0.948837	0.21914	0.414569
0	C	0.445855	0.285461	0.616845
0	C	0.085513	0.718325	0.110001
0	C	0.543253	0.707481	0.888818
0	C	0.992332	0.296073	0.384706
0	C	0.489129	0.208533	0.646788
0	C	0.0422654	0.794355	0.141049
0	C	0.651954	0.650821	0.890867
0	C	0.881616	0.351123	0.3857
0	C	0.379476	0.152656	0.644768
0	C	0.151197	0.850871	0.139206
0	C	0.625399	0.562125	0.88127
0	C	0.906997	0.439845	0.375668
0	C	0.405306	0.0638788	0.654464
0	C	0.1249	0.939581	0.148828
0	C	0.712007	0.517265	0.842258
0	C	0.820596	0.483892	0.336107
0	C	0.318847	0.019428	0.693811
0	C	0.211679	0.984466	0.187826
0	C	0.759072	0.57008	0.794487
0	C	0.775167	0.43052	0.288291
0	C	0.27296	0.0725596	0.741672
0	C	0.25834	0.931856	0.235791
0	C	0.868399	0.534692	0.765907
0	C	0.664389	0.464297	0.259895
0	C	0.162686	0.0382687	0.770235
0	C	0.36844	0.966366	0.264168
0	C	0.943567	0.593343	0.731991
0	C	0.59221	0.404744	0.225404
0	C	0.0893215	0.0977576	0.804289
0	C	0.442978	0.907325	0.298077
0	C	0.0425134	0.638018	0.765084
0	C	0.493303	0.359008	0.257815
0	C	0.990196	0.142758	0.771494
0	C	0.541885	0.862772	0.264937
0	C	0.983002	0.687983	0.808609
0	C	0.553858	0.31041	0.301762
0	C	0.0496249	0.191856	0.727493
0	C	0.482332	0.813041	0.221301
0	C	0.979262	0.671123	0.861474
0	C	0.553058	0.326301	0.354768
0	C	0.0526794	0.174416	0.674684
0	C	0.478419	0.830351	0.168513
0	C	0.911434	0.721796	0.901483
0	C	0.621482	0.276983	0.395338
0	C	0.120195	0.224703	0.634335
0	C	0.411395	0.779753	0.12819
0	C	0.852784	0.666811	0.942942
0	C	0.678938	0.333307	0.436406
0	C	0.178692	0.169462	0.592938
0	C	0.35204	0.835019	0.0871002
0	C	0.714745	0.669432	0.945886
0	C	0.817009	0.331689	0.440175
0	C	0.316765	0.172131	0.589818
0	C	0.214049	0.832353	0.0842008
0	C	0.491362	0.839809	0.939249
0	C	0.0434674	0.162265	0.433529
0	C	0.540872	0.342664	0.598642
0	C	0.990499	0.661952	0.0907877
0	C	0.659526	0.438644	0.820638
0	C	0.872149	0.562813	0.31439
0	C	0.370803	0.940617	0.7155
0	C	0.159124	0.0632887	0.209161
0	C	0.108628	0.694842	0.726285
0	C	0.430358	0.300879	0.218905
0	C	0.925684	0.200437	0.810284
0	C	0.608212	0.805681	0.303457
0	C	0.129539	0.575622	0.78712
0	C	0.403593	0.420204	0.279118
0	C	0.901507	0.0809814	0.750103
0	C	0.629031	0.925268	0.243046
0	C	0.993118	0.779913	0.931438
0	C	0.539587	0.219273	0.42565
0	C	0.0382126	0.282763	0.604412
0	C	0.494374	0.723053	0.0977172
0	C	0.541174	0.416398	0.846815
0	C	0.991309	0.584862	0.339866
0	C	0.489777	0.91857	0.689871
0	C	0.0413938	0.0854791	0.182335
0	C	0.458678	0.486446	0.844725
0	C	0.0729171	0.514387	0.337043
0	C	0.571634	0.988937	0.692468
0	C	0.958683	0.0155913	0.185292
0	C	0.634819	0.857759	0.83417
0	C	0.903797	0.147325	0.327472
0	C	0.397221	0.356984	0.703622
0	C	0.134247	0.644983	0.196038
0	C	0.742023	0.872509	0.800731
0	C	0.79742	0.133598	0.293197
0	C	0.290207	0.369865	0.737543
0	C	0.241761	0.630244	0.22927
0	C	0.334971	0.671851	0.896365
0	C	0.200188	0.33062	0.396186
0	C	0.696669	0.172392	0.636676
0	C	0.834223	0.830774	0.132916
0	C	0.247673	0.643903	0.937217
0	C	0.285483	0.357952	0.438114
0	C	0.781874	0.14311	0.595326
0	C	0.747706	0.859638	0.092001
0	C	0.823861	0.450728	0.917126
0	C	0.706754	0.550248	0.410283
0	C	0.205979	0.952633	0.61944
0	C	0.323468	0.0517447	0.113362
0	C	0.947954	0.438627	0.935312
0	C	0.581744	0.562628	0.42685
0	C	0.0812188	0.939368	0.602663
0	C	0.447837	0.0642942	0.0958249
0	C	0.0444088	0.449471	0.90007
0	C	0.48743	0.55101	0.390525
0	C	0.986471	0.950755	0.638792
0	C	0.542855	0.0564282	0.132233
0	C	0.159921	0.436262	0.918783
0	C	0.370908	0.564313	0.407836
0	C	0.870195	0.936581	0.62146
0	C	0.658959	0.0691631	0.11408
0	C	0.179266	0.41274	0.972503
0	C	0.348617	0.588671	0.461131
0	C	0.848389	0.911812	0.568192
0	C	0.68	0.0897828	0.0599573
0	C	0.0829245	0.402014	0.00769866
0	C	0.442854	0.600272	0.497393
0	C	0.942988	0.900446	0.532122
0	C	0.584996	0.0981497	0.0237095
0	C	0.967137	0.414868	0.989312
0	C	0.55961	0.58724	0.480426
0	C	0.0595954	0.914124	0.549181
0	C	0.468679	0.0853739	0.0414519
0	C	0.594561	0.640198	0.751128
0	C	0.941922	0.363588	0.244198
0	C	0.438867	0.140334	0.78591
0	C	0.0933565	0.862199	0.279059
0	C	0.479469	0.622331	0.721256
0	C	0.0542056	0.38338	0.212653
0	C	0.551495	0.121227	0.817408
0	C	0.977975	0.879795	0.308809
0	C	0.497727	0.55967	0.677104
0	C	0.0299624	0.444117	0.167848
0	C	0.528258	0.0596665	0.861798
0	C	0.996007	0.94166	0.353502
0	C	0.427592	0.700226	0.699321
0	C	0.109335	0.306245	0.191145
0	C	0.604854	0.198588	0.839494
0	C	0.925503	0.801573	0.329938
0	C	0.882707	0.402699	0.724054
0	C	0.649504	0.599128	0.222448
0	C	0.146152	0.90619	0.812233
0	C	0.36948	0.104281	0.296011
0	C	0.810632	0.347275	0.691253
0	C	0.720787	0.656281	0.190755
0	C	0.222088	0.847855	0.840507
0	C	0.308893	0.156972	0.335071
0	C	0.833773	0.656218	0.657719
0	C	0.702357	0.339747	0.152131
0	C	0.199313	0.16276	0.877651
0	C	0.333959	0.843705	0.372316
0	C	0.755277	0.726269	0.647668
0	C	0.78302	0.270515	0.143273
0	C	0.278783	0.23256	0.886747
0	C	0.254967	0.773792	0.381976
0	C	0.700763	0.6033	0.0363826
0	C	0.830231	0.396972	0.531286
0	C	0.333045	0.10801	0.498466
0	C	0.200666	0.89845	0.993759
0	C	0.686128	0.520206	0.0556428
0	C	0.846955	0.480025	0.550523
0	C	0.352592	0.0255141	0.478653
0	C	0.185265	0.981341	0.974227
0	O	0.670059	0.823237	0.882533
0	O	0.866702	0.180072	0.376053
0	O	0.36202	0.323964	0.654764
0	O	0.169286	0.678572	0.147363
0	O	0.53154	0.871402	0.823755
0	O	0.00728832	0.133927	0.317482
0	O	0.500404	0.371027	0.713986
0	O	0.030927	0.632068	0.206787
0	O	0.446136	0.674784	0.920382
0	O	0.0866075	0.329277	0.417927
0	O	0.584318	0.17581	0.613946
0	O	0.945663	0.827232	0.109217
0	O	0.319185	0.692081	0.849734
0	O	0.219572	0.30939	0.350048
0	O	0.715161	0.1933	0.682967
0	O	0.817559	0.810334	0.179442
0	O	0.506099	0.560292	0.857928
0	O	0.0261386	0.441225	0.35212
0	O	0.524564	0.0622915	0.677914
0	O	0.00556815	0.941598	0.172214
0	O	0.35446	0.48758	0.832202
0	O	0.175648	0.512259	0.322268
0	O	0.674917	0.990683	0.706454
0	O	0.854941	0.0147675	0.198666
0	O	0.821709	0.501029	0.872384
0	O	0.710377	0.499707	0.365702
0	O	0.208796	0.00314071	0.664091
0	O	0.321116	0.000355855	0.157575
0	O	0.733578	0.422956	0.936083
0	O	0.796292	0.57778	0.430109
0	O	0.295965	0.925628	0.599741
0	O	0.233241	0.0793904	0.09428
0	O	0.660266	0.570896	0.756506
0	O	0.873372	0.431515	0.249944
0	O	0.37152	0.0719109	0.779859
0	O	0.159358	0.931413	0.273733
0	O	0.629525	0.702734	0.770316
0	O	0.91108	0.30063	0.264228
0	O	0.406831	0.203207	0.766182
0	O	0.128248	0.799638	0.259872
0	O	0.820786	0.473847	0.729831
0	O	0.709143	0.526555	0.224181
0	O	0.209946	0.976471	0.805631
0	O	0.326314	0.027072	0.30177
0	O	0.979436	0.394247	0.744996
0	O	0.554906	0.607055	0.245417
0	O	0.0453897	0.900663	0.795202
0	O	0.444493	0.119088	0.262086
0	O	0.866535	0.656748	0.711476
0	O	0.672128	0.342079	0.206134
0	O	0.167876	0.161078	0.82376
0	O	0.36562	0.844041	0.318382
0	O	0.86864	0.606078	0.626081
0	O	0.664447	0.387517	0.119538
0	O	0.163093	0.11404	0.909984
0	O	0.369782	0.893127	0.404238
0	O	0.907469	0.624029	0.973529
0	O	0.622866	0.376507	0.466168
0	O	0.123945	0.126228	0.5627
0	O	0.406479	0.87814	0.0566276
0	O	0.681235	0.604134	0.981127
0	O	0.848346	0.396872	0.475899
0	O	0.350377	0.107612	0.553926
0	O	0.180425	0.897682	0.0489559
0	O	0.7217	0.663804	0.0618156
0	O	0.808872	0.336621	0.556717
0	O	0.310184	0.168409	0.47338
0	O	0.222707	0.83787	0.968588
0	H	0.621427	0.746833	0.00361271
0	H	0.910302	0.254778	0.498108
0	H	0.411214	0.250094	0.53297
0	H	0.121135	0.754935	0.0263277
0	H	0.743455	0.794532	0.972116
0	H	0.790441	0.205995	0.465832
0	H	0.289166	0.297804	0.564394
0	H	0.242915	0.707283	0.0580052
0	H	0.512891	0.719656	0.846495
0	H	0.0256004	0.285296	0.342655
0	H	0.521321	0.219427	0.688997
0	H	0.0114298	0.782139	0.183289
0	H	0.712542	0.673734	0.857363
0	H	0.823261	0.327371	0.351653
0	H	0.319583	0.175805	0.678487
0	H	0.211652	0.82794	0.172749
0	H	0.619817	0.528979	0.920914
0	H	0.912291	0.473391	0.415109
0	H	0.410636	0.0306067	0.614887
0	H	0.119475	0.972733	0.109152
0	H	0.77883	0.632913	0.808111
0	H	0.757794	0.367364	0.301855
0	H	0.254817	0.135643	0.728188
0	H	0.277498	0.868923	0.222099
0	H	0.927745	0.504783	0.796848
0	H	0.603457	0.492454	0.291064
0	H	0.102237	0.00928722	0.739332
0	H	0.427732	0.995534	0.232669
0	H	0.983184	0.560774	0.696805
0	H	0.553448	0.43647	0.189701
0	H	0.0504114	0.0659266	0.839934
0	H	0.482261	0.939729	0.33342
0	H	0.939345	0.741492	0.792275
0	H	0.60255	0.258993	0.285349
0	H	0.0936639	0.245519	0.743412
0	H	0.439097	0.759307	0.23755
0	H	0.0246657	0.619738	0.879278
0	H	0.502728	0.375719	0.372393
0	H	0.00696728	0.122962	0.657202
0	H	0.523201	0.882168	0.150936
0	H	0.841309	0.758112	0.8799
0	H	0.692314	0.240737	0.374332
0	H	0.190508	0.261088	0.65573
0	H	0.341986	0.742527	0.149471
0	H	0.421524	0.808319	0.962455
0	H	0.111056	0.192395	0.458847
0	H	0.609595	0.312631	0.573928
0	H	0.920328	0.693393	0.0677573
0	H	0.445948	0.869753	0.905246
0	H	0.091694	0.135217	0.399167
0	H	0.587476	0.36986	0.633435
0	H	0.945468	0.631879	0.124845
0	H	0.526077	0.886626	0.966181
0	H	0.00726017	0.113182	0.458013
0	H	0.505414	0.391672	0.573888
0	H	0.025019	0.615249	0.0637076
0	H	0.646547	0.442961	0.77542
0	H	0.883713	0.558787	0.269074
0	H	0.382634	0.944676	0.760811
0	H	0.145075	0.0591303	0.254277
0	H	0.724585	0.389525	0.825878
0	H	0.807134	0.611827	0.320214
0	H	0.305926	0.891498	0.709857
0	H	0.224562	0.112288	0.203909
0	H	0.0477152	0.73843	0.708037
0	H	0.492505	0.256687	0.202099
0	H	0.98692	0.245114	0.827056
0	H	0.54769	0.761482	0.32135
0	H	0.152632	0.662416	0.693378
0	H	0.387694	0.331954	0.185104
0	H	0.884174	0.168822	0.844208
0	H	0.651954	0.837736	0.336583
0	H	0.177253	0.728382	0.748375
0	H	0.361767	0.266667	0.240564
0	H	0.855463	0.232939	0.788541
0	H	0.676956	0.772517	0.281154
0	H	0.174022	0.542166	0.754737
0	H	0.357307	0.451556	0.246306
0	H	0.856904	0.0483182	0.782827
0	H	0.674093	0.958131	0.275498
0	H	0.0866294	0.531262	0.813684
0	H	0.44455	0.466266	0.304963
0	H	0.94291	0.0359672	0.723595
0	H	0.586347	0.969778	0.216574
0	H	0.201259	0.604171	0.810889
0	H	0.333513	0.390906	0.303486
0	H	0.830089	0.110058	0.726407
0	H	0.700442	0.89669	0.219058
0	H	0.946745	0.811589	0.964083
0	H	0.585503	0.188652	0.458865
0	H	0.0820957	0.310586	0.569512
0	H	0.448254	0.690315	0.0654892
0	H	0.0283829	0.824896	0.903231
0	H	0.504837	0.173441	0.398037
0	H	0.00961948	0.330885	0.631751
0	H	0.533128	0.67898	0.125592
0	H	0.0706969	0.74904	0.949601
0	H	0.461487	0.250281	0.443091
0	H	0.956737	0.252876	0.589456
0	H	0.569871	0.755352	0.0788565
0	H	0.501198	0.364611	0.824849
0	H	0.0310073	0.63647	0.317612
0	H	0.529634	0.866982	0.712115
0	H	0.00168382	0.138137	0.203327
0	H	0.555491	0.396675	0.889601
0	H	0.978372	0.604445	0.382736
0	H	0.476595	0.898863	0.647031
0	H	0.0566581	0.103766	0.139286
0	H	0.823974	0.882071	0.824465
0	H	0.715136	0.125097	0.316597
0	H	0.207742	0.379098	0.714188
0	H	0.323556	0.621665	0.205391
0	H	0.730813	0.924742	0.773621
0	H	0.808504	0.0811734	0.266242
0	H	0.300688	0.421607	0.765163
0	H	0.231376	0.577395	0.255909
0	H	0.759078	0.820136	0.774346
0	H	0.78292	0.186122	0.266562
0	H	0.274866	0.316695	0.763455
0	H	0.257997	0.68217	0.256182
0	H	0.289182	0.626752	0.975894
0	H	0.241984	0.380434	0.475016
0	H	0.738754	0.126242	0.556967
0	H	0.789514	0.87583	0.0532033
0	H	0.196758	0.592076	0.922246
0	H	0.343969	0.405623	0.422403
0	H	0.831634	0.0907187	0.610256
0	H	0.698586	0.912369	0.106816
0	H	0.182461	0.692582	0.945814
0	H	0.344206	0.307081	0.450097
0	H	0.848284	0.190739	0.586065
0	H	0.680819	0.811902	0.0836693
0	H	0.0295573	0.468498	0.857808
0	H	0.504766	0.531372	0.348569
0	H	0.00330098	0.971118	0.680625
0	H	0.526025	0.0404771	0.174927
0	H	0.234962	0.444987	0.891045
0	H	0.297513	0.555	0.379312
0	H	0.796537	0.945548	0.649925
0	H	0.732988	0.0623099	0.142591
0	H	0.269639	0.402882	0.987121
0	H	0.257489	0.598419	0.474648
0	H	0.757319	0.901561	0.554614
0	H	0.770746	0.0993114	0.0457891
0	H	0.0984252	0.383744	0.0495401
0	H	0.425105	0.619264	0.538889
0	H	0.925588	0.881094	0.490647
0	H	0.601943	0.114486	0.981611
0	H	0.891456	0.406683	0.0165397
0	H	0.633885	0.595807	0.508375
0	H	0.133946	0.905502	0.521254
0	H	0.393984	0.0915564	0.013446
0	H	0.417163	0.597558	0.753227
0	H	0.116887	0.410786	0.243445
0	H	0.614961	0.094892	0.78655
0	H	0.915982	0.905155	0.276932
0	H	0.536477	0.504199	0.694003
0	H	0.99132	0.499699	0.184611
0	H	0.490836	0.0039505	0.84466
0	H	0.0345699	0.997458	0.33707
0	H	0.558393	0.58015	0.645295
0	H	0.966945	0.421711	0.137639
0	H	0.464624	0.0811078	0.892083
0	H	0.0568129	0.920542	0.385073
0	H	0.413318	0.543434	0.657876
0	H	0.111992	0.460746	0.146686
0	H	0.610485	0.0434456	0.882928
0	H	0.911626	0.957365	0.372971
0	H	0.414803	0.74396	0.732244
0	H	0.122482	0.262632	0.224093
0	H	0.618139	0.242512	0.806754
0	H	0.913465	0.758393	0.296611
0	H	0.340307	0.689802	0.680724
0	H	0.197073	0.317888	0.173277
0	H	0.692198	0.187413	0.857838
0	H	0.837696	0.811651	0.348138
0	H	0.484678	0.727726	0.668587
0	H	0.0544554	0.277884	0.159941
0	H	0.548639	0.22631	0.870474
0	H	0.981731	0.773492	0.360759
0	H	0.814393	0.360618	0.647274
0	H	0.715145	0.645852	0.146371
0	H	0.217046	0.853262	0.885329
0	H	0.312496	0.135228	0.37735
0	H	0.714706	0.348471	0.701895
0	H	0.817252	0.653687	0.200111
0	H	0.317961	0.853914	0.83072
0	H	0.212555	0.163739	0.32589
0	H	0.84034	0.28439	0.696403
0	H	0.692407	0.719003	0.197778
0	H	0.196739	0.785365	0.830788
0	H	0.346224	0.218417	0.334442
0	H	0.807063	0.776527	0.630774
0	H	0.732176	0.218593	0.128173
0	H	0.227298	0.284122	0.901965
0	H	0.306567	0.722785	0.397937
0	H	0.713471	0.748277	0.685492
0	H	0.827081	0.251393	0.181249
0	H	0.322698	0.252207	0.848834
0	H	0.212001	0.752978	0.344122
0	H	0.684662	0.711798	0.618466
0	H	0.851719	0.284362	0.113021
0	H	0.347677	0.218989	0.916989
0	H	0.185351	0.787939	0.411738
0	H	0.686966	0.475542	0.0224132
0	H	0.845396	0.524432	0.517154
0	H	0.350541	0.980528	0.511622
0	H	0.187388	0.0262706	0.00728466
0	H	0.602024	0.510544	0.0777131
0	H	0.932107	0.488693	0.571937
0	H	0.438755	0.01819	0.457955
0	H	0.100251	0.990818	0.952852
0	H	0.756945	0.503155	0.0844838
0	H	0.777753	0.497675	0.579999
0	H	0.285087	0.00757631	0.448438
0	H	0.25484	0.998178	0.944702
