#******************************************
#
# CIF file created by Zeo++
# Zeo++ is an open source package to
# analyze microporous materials
#
#*******************************************

_cell_length_a		12.4485(0)
_cell_length_b		13.5508(0)
_cell_length_c		20.641(0)
_cell_angle_alpha		90(0)
_cell_angle_beta		90(0)
_cell_angle_gamma		90(0)

_symmetry_space_group_name_H-M		'P1'
_symmetry_Int_Tables_number		1
_symmetry_cell_setting		Monoclinic

loop_
_symmetry_equiv_pos_as_xyz
'+x,+y,+z'

loop_
_atom_site_label
_atom_site_type_symbol
_atom_site_fract_x
_atom_site_fract_y
_atom_site_fract_z
0	P	0.164842	0.388219	0.687504
0	P	0.476743	0.146595	0.187666
0	P	0.977345	0.388249	0.873689
0	P	0.664747	0.146135	0.373855
0	P	0.976149	0.646565	0.374206
0	P	0.663789	0.888146	0.873967
0	P	0.163385	0.646463	0.187999
0	P	0.476004	0.888726	0.687738
0	P	0.204884	0.385923	0.545319
0	P	0.436916	0.149118	0.0455273
0	P	0.937299	0.38569	0.0158299
0	P	0.705699	0.148508	0.51595
0	P	0.936007	0.648853	0.516372
0	P	0.703613	0.885544	0.0161252
0	P	0.203384	0.649129	0.0458511
0	P	0.435108	0.886385	0.545624
0	P	0.183308	0.199684	0.609964
0	P	0.457989	0.33546	0.110275
0	P	0.958821	0.199384	0.951056
0	P	0.683236	0.33478	0.451414
0	P	0.957696	0.835115	0.451743
0	P	0.682546	0.699247	0.95132
0	P	0.181935	0.835385	0.110652
0	P	0.45754	0.700102	0.610157
0	P	0.979299	0.257541	0.672102
0	P	0.662146	0.27744	0.172164
0	P	0.162843	0.257704	0.889009
0	P	0.479299	0.276657	0.389446
0	P	0.161651	0.777253	0.389554
0	P	0.478402	0.757314	0.88941
0	P	0.977891	0.777064	0.172649
0	P	0.661445	0.758195	0.672164
0	N	0.199203	0.445335	0.617854
0	N	0.44268	0.0894234	0.117986
0	N	0.943448	0.445385	0.943404
0	N	0.699872	0.0891115	0.443388
0	N	0.941741	0.58944	0.443833
0	N	0.697803	0.945247	0.943684
0	N	0.197213	0.58938	0.118263
0	N	0.440976	0.945756	0.618188
0	N	0.239921	0.264961	0.549686
0	N	0.401768	0.270049	0.0499313
0	N	0.902279	0.264746	0.0113111
0	N	0.740289	0.269563	0.511561
0	N	0.90106	0.769839	0.512009
0	N	0.73876	0.764623	0.0116919
0	N	0.23846	0.770061	0.05038
0	N	0.400536	0.765328	0.550005
0	N	0.224007	0.266735	0.683354
0	N	0.417605	0.268086	0.183568
0	N	0.918396	0.266664	0.877731
0	N	0.723585	0.267788	0.377921
0	N	0.917011	0.768071	0.378351
0	N	0.722927	0.766629	0.878042
0	N	0.222314	0.768033	0.183971
0	N	0.417175	0.767076	0.68365
0	N	0.0487334	0.204678	0.611018
0	N	0.592571	0.330886	0.111358
0	N	0.0934065	0.204124	0.949856
0	N	0.548666	0.329701	0.450503
0	N	0.0922696	0.830172	0.450645
0	N	0.547964	0.703804	0.950208
0	N	0.0473358	0.830646	0.111814
0	N	0.592118	0.705215	0.611071
0	N	0.0348223	0.362585	0.701571
0	N	0.606717	0.172388	0.201704
0	N	0.107348	0.362748	0.859579
0	N	0.534593	0.171445	0.360086
0	N	0.106174	0.672148	0.360126
0	N	0.533827	0.862382	0.859899
0	N	0.0333734	0.671998	0.202092
0	N	0.606149	0.863378	0.701552
0	N	0.221189	0.450212	0.752893
0	N	0.420135	0.0851135	0.253142
0	N	0.920476	0.449569	0.808226
0	N	0.720686	0.0844814	0.308231
0	N	0.919644	0.584682	0.308829
0	N	0.720516	0.949619	0.808531
0	N	0.220298	0.585002	0.253399
0	N	0.419986	0.950368	0.753335
0	N	0.0799339	0.404525	0.508088
0	N	0.561976	0.13046	0.00842567
0	N	0.0620463	0.404095	0.0533357
0	N	0.58098	0.129618	0.553409
0	N	0.0609181	0.630187	0.553633
0	N	0.578582	0.904155	0.0532713
0	N	0.0786096	0.630731	0.00837608
0	N	0.559798	0.905308	0.508125
0	N	0.300696	0.438167	0.49391
0	N	0.341061	0.097438	0.993935
0	N	0.840956	0.437625	0.067009
0	N	0.801872	0.096597	0.56723
0	N	0.840092	0.596634	0.56772
0	N	0.799495	0.937242	0.0677083
0	N	0.29963	0.597198	0.994605
0	N	0.338889	0.938212	0.494357
0	N	0.232425	0.0813868	0.6123
0	N	0.407958	0.453503	0.112727
0	N	0.908862	0.0813703	0.948676
0	N	0.732273	0.453161	0.449214
0	N	0.908497	0.953405	0.449414
0	N	0.732591	0.581201	0.948878
0	N	0.231863	0.953388	0.113104
0	N	0.408501	0.581725	0.612338
0	N	0.850611	0.291335	0.647512
0	N	0.790511	0.243275	0.147164
0	N	0.291401	0.291761	0.91373
0	N	0.350683	0.243065	0.414193
0	N	0.290361	0.743514	0.414114
0	N	0.350024	0.791458	0.914398
0	N	0.849339	0.743035	0.147902
0	N	0.790104	0.791784	0.647474
0	N	0.975837	0.172912	0.73549
0	N	0.666398	0.361625	0.235764
0	N	0.166728	0.173492	0.825414
0	N	0.476197	0.360976	0.325868
0	N	0.164984	0.861732	0.326086
0	N	0.474149	0.673202	0.825785
0	N	0.974013	0.861316	0.236235
0	N	0.664489	0.673752	0.735676
0	C	0.34137	0.272507	0.695155
0	C	0.300365	0.262475	0.195785
0	C	0.80114	0.272285	0.865557
0	C	0.840819	0.26227	0.365633
0	C	0.79965	0.762353	0.366534
0	C	0.840178	0.772237	0.865873
0	C	0.339563	0.762372	0.19615
0	C	0.299936	0.77256	0.695941
0	C	0.201536	0.558094	0.749212
0	C	0.437234	0.976922	0.249266
0	C	0.938118	0.557741	0.811446
0	C	0.700801	0.976643	0.31156
0	C	0.938876	0.476743	0.312497
0	C	0.703513	0.0578158	0.812349
0	C	0.202224	0.476899	0.250205
0	C	0.439869	0.0582072	0.750029
0	C	0.0342023	0.319025	0.472795
0	C	0.607453	0.216034	0.973072
0	C	0.107188	0.31822	0.0885351
0	C	0.53481	0.215036	0.588585
0	C	0.106657	0.715661	0.588957
0	C	0.533103	0.818489	0.088524
0	C	0.0334227	0.716542	0.97314
0	C	0.605932	0.819823	0.472998
0	C	0.280875	0.543679	0.477936
0	C	0.359428	0.991572	0.978432
0	C	0.860117	0.543178	0.0831077
0	C	0.78246	0.991083	0.583383
0	C	0.859813	0.491086	0.58364
0	C	0.780983	0.0430693	0.0832607
0	C	0.280465	0.491645	0.978516
0	C	0.358087	0.0437343	0.478149
0	C	0.180371	0.0165937	0.660984
0	C	0.457468	0.517974	0.162547
0	C	0.958046	0.0168942	0.898762
0	C	0.680554	0.518024	0.400432
0	C	0.960277	0.0181196	0.400575
0	C	0.683347	0.516786	0.898939
0	C	0.182297	0.017929	0.162842
0	C	0.46029	0.516778	0.661046
0	C	0.761616	0.249879	0.686656
0	C	0.879864	0.28431	0.18622
0	C	0.380527	0.25062	0.874542
0	C	0.261663	0.283992	0.374847
0	C	0.379286	0.785013	0.374931
0	C	0.260693	0.750472	0.875312
0	C	0.760141	0.783994	0.187117
0	C	0.879075	0.750719	0.686808
0	C	0.92984	0.0744311	0.722321
0	C	0.711519	0.460501	0.222742
0	C	0.212199	0.0747625	0.838481
0	C	0.430628	0.459727	0.338691
0	C	0.210876	0.960309	0.339088
0	C	0.429121	0.574269	0.838718
0	C	0.928294	0.959948	0.223148
0	C	0.709945	0.574994	0.722747
0	H	0.382921	0.335298	0.670643
0	H	0.258358	0.200085	0.171122
0	H	0.759427	0.335321	0.889663
0	H	0.882612	0.198872	0.389313
0	H	0.758043	0.699573	0.391016
0	H	0.882169	0.834577	0.890596
0	H	0.381223	0.699232	0.172131
0	H	0.258076	0.835799	0.672132
0	H	0.356049	0.280766	0.748297
0	H	0.286355	0.253653	0.248962
0	H	0.786944	0.280177	0.812335
0	H	0.854772	0.255257	0.312331
0	H	0.78497	0.754128	0.313396
0	H	0.854242	0.781125	0.812711
0	H	0.353766	0.75463	0.249376
0	H	0.285975	0.779811	0.74923
0	H	0.383975	0.204137	0.679672
0	H	0.257795	0.331119	0.180799
0	H	0.758368	0.204138	0.881186
0	H	0.883723	0.330169	0.381714
0	H	0.757048	0.830723	0.38202
0	H	0.882695	0.703553	0.880818
0	H	0.382407	0.830423	0.18042
0	H	0.257137	0.704518	0.680023
0	H	0.189922	0.422612	0.799106
0	H	0.452107	0.112066	0.299351
0	H	0.951965	0.421985	0.762029
0	H	0.690014	0.112633	0.262043
0	H	0.950872	0.612199	0.262591
0	H	0.688639	0.922665	0.762306
0	H	0.188983	0.612667	0.299602
0	H	0.450576	0.922199	0.799541
0	H	0.247859	0.593317	0.789012
0	H	0.387696	0.942378	0.287914
0	H	0.888922	0.591877	0.772389
0	H	0.746433	0.941735	0.27133
0	H	0.892118	0.441662	0.27283
0	H	0.752931	0.0922443	0.773608
0	H	0.25119	0.442623	0.289298
0	H	0.393769	0.0931533	0.790041
0	H	0.116421	0.580619	0.755698
0	H	0.521331	0.952671	0.257428
0	H	0.022361	0.581447	0.803134
0	H	0.615583	0.954247	0.305597
0	H	0.0238522	0.45393	0.305778
0	H	0.619418	0.0820904	0.804291
0	H	0.117932	0.453322	0.258428
0	H	0.525017	0.0806102	0.756329
0	H	0.231231	0.590078	0.703038
0	H	0.409205	0.94582	0.202477
0	H	0.910414	0.589745	0.85807
0	H	0.731576	0.944292	0.357344
0	H	0.909399	0.444861	0.358749
0	H	0.731807	0.0889658	0.859056
0	H	0.229861	0.444814	0.203614
0	H	0.409614	0.0905295	0.704109
0	H	0.0717578	0.468857	0.480692
0	H	0.570622	0.0659917	0.981177
0	H	0.0705256	0.468313	0.0808422
0	H	0.573159	0.0653267	0.580875
0	H	0.0690652	0.565814	0.580991
0	H	0.569971	0.968546	0.0805977
0	H	0.0701295	0.566483	0.9809
0	H	0.567505	0.969536	0.480583
0	H	0.992141	0.269734	0.507749
0	H	0.649823	0.265148	0.00800916
0	H	0.149731	0.269261	0.0535943
0	H	0.493152	0.264408	0.553497
0	H	0.148822	0.764904	0.554015
0	H	0.491042	0.769297	0.0535033
0	H	0.991072	0.765653	0.00807647
0	H	0.647621	0.770511	0.508113
0	H	0.972524	0.345734	0.438419
0	H	0.668758	0.189521	0.938414
0	H	0.168263	0.344465	0.123424
0	H	0.472692	0.188165	0.622626
0	H	0.168241	0.688885	0.623374
0	H	0.471486	0.844887	0.123027
0	H	0.972174	0.690233	0.93839
0	H	0.667988	0.846625	0.438895
0	H	0.0927246	0.273082	0.445686
0	H	0.548633	0.261998	0.946214
0	H	0.0480997	0.272144	0.115104
0	H	0.592953	0.260919	0.616041
0	H	0.0481098	0.761647	0.616019
0	H	0.591863	0.77264	0.115516
0	H	0.0924437	0.762474	0.946411
0	H	0.547764	0.773878	0.445614
0	H	0.38091	0.427101	0.507449
0	H	0.260774	0.109845	0.00682127
0	H	0.760869	0.426181	0.0533272
0	H	0.882047	0.107823	0.553679
0	H	0.759904	0.607773	0.554156
0	H	0.879767	0.924976	0.054745
0	H	0.379758	0.608663	0.00820374
0	H	0.258718	0.926841	0.507859
0	H	0.24944	0.590599	0.517425
0	H	0.390939	0.944935	0.0180276
0	H	0.890672	0.590446	0.0435485
0	H	0.747896	0.944667	0.544617
0	H	0.891314	0.444221	0.544148
0	H	0.75002	0.0898383	0.0435638
0	H	0.249979	0.444381	0.0180878
0	H	0.393196	0.0901303	0.516753
0	H	0.22395	0.549073	0.436863
0	H	0.415833	0.985356	0.93713
0	H	0.917457	0.548703	0.123964
0	H	0.728311	0.985885	0.625823
0	H	0.916645	0.485611	0.624758
0	H	0.724045	0.0492584	0.124302
0	H	0.223059	0.486124	0.9377
0	H	0.411656	0.0489411	0.435436
0	H	0.356328	0.579097	0.461846
0	H	0.283416	0.956666	0.962844
0	H	0.784546	0.577977	0.0995922
0	H	0.858654	0.955063	0.597474
0	H	0.784306	0.45568	0.599634
0	H	0.856841	0.07787	0.0992546
0	H	0.355998	0.456846	0.961983
0	H	0.281705	0.0797774	0.464446
0	H	0.315384	0.0681685	0.609949
0	H	0.325015	0.466064	0.109137
0	H	0.82604	0.0685348	0.952729
0	H	0.815239	0.466285	0.451755
0	H	0.825521	0.966502	0.451812
0	H	0.815518	0.568634	0.952567
0	H	0.314679	0.966334	0.109177
0	H	0.325531	0.5686	0.609847
0	H	0.210089	0.939935	0.65364
0	H	0.428552	0.594836	0.154724
0	H	0.930018	0.939933	0.907144
0	H	0.711071	0.594537	0.407452
0	H	0.93044	0.094758	0.407842
0	H	0.711914	0.439839	0.906919
0	H	0.210411	0.0948787	0.154512
0	H	0.429763	0.440284	0.654013
0	H	0.197274	0.0362013	0.712284
0	H	0.437526	0.498473	0.21348
0	H	0.936858	0.0357157	0.847904
0	H	0.696889	0.497915	0.349148
0	H	0.943251	0.998341	0.349322
0	H	0.703824	0.536134	0.84806
0	H	0.203093	0.999135	0.213773
0	H	0.444082	0.536846	0.712352
0	H	0.0915669	0.0150603	0.654213
0	H	0.546617	0.519143	0.157677
0	H	0.0473119	0.0165817	0.902941
0	H	0.591814	0.520327	0.407455
0	H	0.0491041	0.01981	0.40726
0	H	0.594151	0.515884	0.903515
0	H	0.0930718	0.0182502	0.158416
0	H	0.549012	0.514478	0.653953
0	H	0.833269	0.285224	0.597469
0	H	0.807615	0.249552	0.0971068
0	H	0.308736	0.285632	0.963755
0	H	0.33336	0.24948	0.46422
0	H	0.30775	0.749592	0.464159
0	H	0.332898	0.785171	0.964445
0	H	0.831985	0.74917	0.0978799
0	H	0.80744	0.785386	0.597446
0	H	0.766851	0.275911	0.73769
0	H	0.874563	0.258727	0.237337
0	H	0.375355	0.276734	0.82354
0	H	0.266622	0.256827	0.324055
0	H	0.373957	0.759051	0.323883
0	H	0.266009	0.776098	0.824203
0	H	0.765341	0.757741	0.238087
0	H	0.874123	0.777784	0.737624
0	H	0.684679	0.278143	0.666277
0	H	0.956523	0.255403	0.165874
0	H	0.457389	0.27887	0.894993
0	H	0.18471	0.256466	0.395625
0	H	0.456245	0.756694	0.39525
0	H	0.184004	0.779343	0.895637
0	H	0.683301	0.755739	0.166629
0	H	0.95604	0.778266	0.666056
0	H	0.755903	0.168057	0.686251
0	H	0.886284	0.366051	0.185553
0	H	0.386375	0.168801	0.874792
0	H	0.256146	0.365817	0.374505
0	H	0.384985	0.866836	0.375356
0	H	0.254269	0.668729	0.875931
0	H	0.754235	0.865816	0.186979
0	H	0.884534	0.668896	0.687091
0	H	0.965125	0.196742	0.782906
0	H	0.677639	0.337578	0.283059
0	H	0.178194	0.197629	0.778144
0	H	0.465289	0.337019	0.278506
0	H	0.175575	0.837796	0.278684
0	H	0.463046	0.697279	0.778484
0	H	0.962581	0.837166	0.283508
0	H	0.675422	0.697599	0.783062
0	H	0.9729	0.0378817	0.681619
0	H	0.666497	0.497499	0.18298
0	H	0.167616	0.037778	0.878437
0	H	0.473568	0.496335	0.379393
0	H	0.167451	0.997141	0.379537
0	H	0.474404	0.53708	0.878302
0	H	0.972432	0.996805	0.18296
0	H	0.667339	0.538735	0.681786
0	H	0.939647	0.027283	0.765928
0	H	0.703134	0.506783	0.266854
0	H	0.203631	0.028333	0.794456
0	H	0.441037	0.506541	0.294958
0	H	0.201421	0.00713491	0.295291
0	H	0.437207	0.528186	0.794495
0	H	0.937238	0.00658838	0.267056
0	H	0.698947	0.527921	0.76629
0	H	0.842847	0.0746194	0.709882
0	H	0.797919	0.46099	0.20904
0	H	0.298769	0.0745074	0.851894
0	H	0.343516	0.46003	0.3508
0	H	0.297757	0.960229	0.351795
0	H	0.342815	0.573696	0.852624
0	H	0.841576	0.960063	0.210059
0	H	0.797169	0.574607	0.710948
