#******************************************
#
# CIF file created by Zeo++
# Zeo++ is an open source package to
# analyze microporous materials
#
#*******************************************

_cell_length_a		15.3439(0)
_cell_length_b		15.2415(0)
_cell_length_c		16.6337(0)
_cell_angle_alpha		90(0)
_cell_angle_beta		90(0)
_cell_angle_gamma		90(0)

_symmetry_space_group_name_H-M		'P1'
_symmetry_Int_Tables_number		1
_symmetry_cell_setting		Monoclinic

loop_
_symmetry_equiv_pos_as_xyz
'+x,+y,+z'

loop_
_atom_site_label
_atom_site_type_symbol
_atom_site_fract_x
_atom_site_fract_y
_atom_site_fract_z
0	C	0.639667	0.910489	0.102621
0	C	0.381379	0.115703	0.602402
0	C	0.6178	0.13954	0.358563
0	C	0.401958	0.887195	0.854688
0	C	0.883884	0.405793	0.130743
0	C	0.136015	0.620808	0.626868
0	C	0.906416	0.643287	0.881876
0	C	0.112893	0.384566	0.382429
0	C	0.62332	0.951574	0.0216387
0	C	0.397586	0.0746805	0.521399
0	C	0.578454	0.121848	0.277242
0	C	0.441143	0.90509	0.77334
0	C	0.901818	0.445342	0.212041
0	C	0.1183	0.581097	0.708132
0	C	0.947022	0.626771	0.96293
0	C	0.0723392	0.400956	0.463513
0	H	0.558963	0.985787	0.0209604
0	H	0.461687	0.0401133	0.520548
0	H	0.545339	0.056563	0.276434
0	H	0.474113	0.970462	0.772646
0	H	0.966896	0.478268	0.212624
0	H	0.0533226	0.547995	0.708835
0	H	0.980879	0.561899	0.963637
0	H	0.0381517	0.465573	0.464381
0	H	0.672276	0.00453455	0.0115456
0	H	0.348357	0.0219839	0.511175
0	H	0.525191	0.170124	0.266078
0	H	0.494529	0.856984	0.762193
0	H	0.854237	0.499305	0.223056
0	H	0.166066	0.527267	0.719162
0	H	0.999697	0.675958	0.973118
0	H	0.0199281	0.351504	0.473836
0	C	0.624505	0.883853	0.955514
0	C	0.396511	0.142868	0.455559
0	C	0.646699	0.123431	0.211859
0	C	0.373064	0.903289	0.70782
0	C	0.899794	0.377016	0.277743
0	C	0.1201	0.649586	0.773692
0	C	0.879678	0.628007	0.0289936
0	C	0.140168	0.399844	0.529262
0	C	0.571449	0.809635	0.96352
0	C	0.449462	0.217034	0.463982
0	C	0.721564	0.0721364	0.221785
0	C	0.298077	0.95448	0.717554
0	C	0.950858	0.301613	0.268458
0	C	0.0689437	0.724884	0.7642
0	C	0.805854	0.574787	0.0207346
0	C	0.213939	0.452943	0.520556
0	H	0.52706	0.804858	0.0144032
0	H	0.494374	0.221225	0.514551
0	H	0.726909	0.0290411	0.273805
0	H	0.292468	0.997449	0.769624
0	H	0.993793	0.29588	0.216578
0	H	0.0259029	0.730339	0.712358
0	H	0.801061	0.530332	0.969686
0	H	0.218141	0.497919	0.469808
0	C	0.575227	0.741604	0.906904
0	C	0.444784	0.285902	0.408272
0	C	0.789489	0.0759779	0.165555
0	C	0.230448	0.950733	0.661032
0	C	0.946986	0.233689	0.325138
0	C	0.0729017	0.793102	0.820586
0	C	0.738193	0.578491	0.0772814
0	C	0.282443	0.448343	0.576184
0	C	0.63607	0.746773	0.844281
0	C	0.38372	0.281253	0.345815
0	C	0.783575	0.134913	0.101176
0	C	0.236702	0.891865	0.596634
0	C	0.888086	0.240064	0.389209
0	C	0.131834	0.78708	0.884655
0	C	0.743423	0.63944	0.140119
0	C	0.277724	0.387201	0.638886
0	H	0.642142	0.692857	0.80173
0	H	0.377309	0.335644	0.303805
0	H	0.837279	0.140623	0.0587006
0	H	0.183292	0.886411	0.55381
0	H	0.882476	0.186378	0.432108
0	H	0.137688	0.841046	0.927206
0	H	0.689852	0.645444	0.182686
0	H	0.331775	0.380868	0.680908
0	C	0.690922	0.819765	0.83689
0	C	0.329145	0.2081	0.337805
0	C	0.709972	0.188284	0.0918692
0	C	0.310211	0.838298	0.587699
0	C	0.834778	0.314043	0.39778
0	C	0.184954	0.712988	0.893606
0	C	0.815954	0.694602	0.147699
0	C	0.205024	0.332325	0.647103
0	C	0.762986	0.815329	0.775152
0	C	0.256893	0.212619	0.276236
0	C	0.713082	0.258514	0.0277931
0	C	0.306989	0.767886	0.523817
0	C	0.76471	0.311015	0.461562
0	C	0.254824	0.71592	0.957604
0	C	0.811252	0.767073	0.209492
0	C	0.20983	0.259673	0.708733
0	H	0.734157	0.814048	0.713838
0	H	0.285606	0.213777	0.214862
0	H	0.714531	0.227213	0.967448
0	H	0.305496	0.799153	0.463385
0	H	0.795719	0.309372	0.522019
0	H	0.22377	0.717539	0.0179636
0	H	0.810035	0.738002	0.270793
0	H	0.210929	0.288624	0.770091
0	H	0.805067	0.874681	0.776978
0	H	0.214799	0.153248	0.278307
0	H	0.653392	0.299896	0.0286163
0	H	0.366569	0.726376	0.524634
0	H	0.723715	0.371167	0.460746
0	H	0.29568	0.655651	0.956804
0	H	0.87001	0.809692	0.207739
0	H	0.151061	0.217028	0.706729
0	C	0.818552	0.735369	0.790129
0	C	0.201266	0.29258	0.291002
0	C	0.79168	0.316324	0.040461
0	C	0.228229	0.710341	0.536608
0	C	0.707227	0.231974	0.44875
0	C	0.312593	0.794782	0.944905
0	C	0.731523	0.822546	0.194437
0	C	0.289591	0.204148	0.693892
0	C	0.828483	0.67217	0.729499
0	C	0.191575	0.355919	0.230437
0	C	0.852894	0.327515	0.978745
0	C	0.166465	0.700004	0.47512
0	C	0.696788	0.169778	0.510211
0	C	0.323904	0.856398	0.00661523
0	C	0.668389	0.83187	0.254859
0	C	0.352821	0.195114	0.754254
0	H	0.798103	0.682562	0.671341
0	H	0.222011	0.345461	0.17231
0	H	0.841629	0.296872	0.920685
0	H	0.17742	0.730945	0.417171
0	H	0.727725	0.180612	0.568099
0	H	0.293286	0.845267	0.0646202
0	H	0.678745	0.801144	0.312965
0	H	0.34242	0.22589	0.812325
0	C	0.876693	0.596423	0.745559
0	C	0.143425	0.431696	0.2464
0	C	0.927627	0.377388	0.99336
0	C	0.091475	0.650614	0.489998
0	C	0.647324	0.0945535	0.495386
0	C	0.37387	0.931385	0.992031
0	C	0.592798	0.879712	0.238662
0	C	0.428511	0.147301	0.738142
0	C	0.576851	0.917528	0.162916
0	C	0.444309	0.108911	0.662634
0	C	0.609333	0.0777581	0.419941
0	C	0.411225	0.94854	0.916396
0	C	0.944857	0.414856	0.0690345
0	C	0.0746086	0.612546	0.565466
0	C	0.914154	0.580417	0.821326
0	C	0.10536	0.447558	0.321977
0	H	0.516013	0.952377	0.15225
0	H	0.505108	0.0738943	0.651992
0	H	0.573292	0.0171467	0.41044
0	H	0.447428	0.00909858	0.90692
0	H	0.00518325	0.451	0.0785262
0	H	0.014236	0.576558	0.575012
0	H	0.949344	0.519468	0.831853
0	H	0.0700099	0.508455	0.332469
0	C	0.71748	0.864161	0.119814
0	C	0.303588	0.162167	0.619476
0	C	0.66479	0.217559	0.374726
0	C	0.354634	0.80936	0.8707
0	C	0.806379	0.358502	0.114724
0	C	0.213696	0.667786	0.610687
0	C	0.859846	0.721339	0.864777
0	C	0.159584	0.306564	0.36545
0	C	0.681111	0.89203	0.889056
0	C	0.339511	0.135375	0.389306
0	C	0.638256	0.178599	0.144148
0	C	0.381793	0.848106	0.640135
0	C	0.844653	0.385961	0.345186
0	C	0.175208	0.640947	0.841184
0	C	0.887806	0.684843	0.0955815
0	C	0.132724	0.342623	0.595655
0	O	0.785815	0.859225	0.065629
0	O	0.235214	0.166984	0.565308
0	O	0.669779	0.285744	0.319897
0	O	0.349031	0.74141	0.815685
0	O	0.738827	0.352998	0.169702
0	O	0.281471	0.672685	0.665488
0	O	0.854461	0.789998	0.919064
0	O	0.164872	0.237828	0.419695
0	H	0.765713	0.864962	0.00861887
0	H	0.255367	0.162386	0.508231
0	H	0.663701	0.265001	0.26308
0	H	0.35471	0.76229	0.758882
0	H	0.759521	0.358969	0.226491
0	H	0.26091	0.666319	0.72229
0	H	0.859997	0.769682	0.976069
0	H	0.160443	0.258184	0.476764
0	O	0.893326	0.52997	0.690718
0	O	0.127549	0.498365	0.19157
0	O	0.991879	0.395558	0.937237
0	O	0.02641	0.633505	0.434338
0	O	0.630102	0.0290846	0.551013
0	O	0.392157	0.995997	0.0481498
0	O	0.526384	0.89562	0.293326
0	O	0.495086	0.132203	0.792825
0	C	0.85063	0.535111	0.613125
0	C	0.170897	0.493098	0.114264
0	C	0.986675	0.35107	0.86035
0	C	0.0307499	0.67868	0.357778
0	C	0.674851	0.0334069	0.62764
0	C	0.348053	0.99083	0.125088
0	C	0.531843	0.852556	0.370867
0	C	0.489518	0.175966	0.870054
0	H	0.872826	0.474566	0.583602
0	H	0.148378	0.553225	0.0842707
0	H	0.045786	0.374377	0.829743
0	H	0.971153	0.655848	0.327643
0	H	0.651618	0.973784	0.657938
0	H	0.371729	0.0499778	0.155838
0	H	0.471313	0.873982	0.400279
0	H	0.54963	0.154203	0.899948
0	H	0.873224	0.592956	0.580001
0	H	0.149174	0.434829	0.0813131
0	H	0.928176	0.371697	0.827669
0	H	0.0886793	0.658113	0.324236
0	H	0.654826	0.0920204	0.660953
0	H	0.368107	0.931667	0.157575
0	H	0.588904	0.876077	0.404145
0	H	0.432027	0.153366	0.903174
0	H	0.779841	0.534948	0.620496
0	H	0.241616	0.494009	0.122204
0	H	0.988743	0.279996	0.868823
0	H	0.0289365	0.749692	0.366737
0	H	0.745379	0.0309885	0.618792
0	H	0.277466	0.993498	0.116697
0	H	0.532718	0.7813	0.363386
0	H	0.48942	0.247154	0.861972
0	C	0.727626	0.975372	0.872926
0	C	0.292841	0.0520355	0.373791
0	C	0.554993	0.224355	0.127825
0	C	0.465196	0.802616	0.623723
0	C	0.799299	0.469913	0.361264
0	C	0.220815	0.557114	0.857177
0	C	0.970574	0.731744	0.111733
0	C	0.049958	0.295547	0.611137
0	C	0.682079	0.0445155	0.836075
0	C	0.337866	0.982321	0.337303
0	C	0.48669	0.17804	0.0909554
0	C	0.533584	0.849428	0.587484
0	C	0.845663	0.539087	0.397146
0	C	0.174951	0.488043	0.893724
0	C	0.0395843	0.686015	0.148251
0	C	0.980336	0.340733	0.647217
0	H	0.613191	0.0366925	0.820971
0	H	0.406514	0.98987	0.321201
0	H	0.49513	0.108914	0.0754643
0	H	0.525316	0.918832	0.572927
0	H	0.914665	0.531048	0.411587
0	H	0.106232	0.496274	0.909127
0	H	0.0321008	0.616599	0.16323
0	H	0.98749	0.40992	0.663197
0	C	0.72467	0.123279	0.818628
0	C	0.29503	0.903247	0.321726
0	C	0.407828	0.220118	0.0743431
0	C	0.612404	0.807535	0.570341
0	C	0.80381	0.618345	0.414159
0	C	0.216983	0.40874	0.910188
0	C	0.117776	0.729053	0.165517
0	C	0.901821	0.297436	0.662511
0	H	0.688673	0.176556	0.790217
0	H	0.330584	0.849357	0.293826
0	H	0.355194	0.18343	0.0459549
0	H	0.665055	0.844623	0.542398
0	H	0.840497	0.671613	0.441851
0	H	0.180692	0.355501	0.938333
0	H	0.17094	0.692898	0.193635
0	H	0.848018	0.333125	0.690071
0	C	0.812912	0.133673	0.837401
0	C	0.207117	0.893229	0.341966
0	C	0.396592	0.308539	0.0942258
0	C	0.62358	0.718822	0.589131
0	C	0.715569	0.629191	0.395627
0	C	0.304924	0.397819	0.890516
0	C	0.127796	0.81798	0.146919
0	C	0.892204	0.208845	0.642418
0	H	0.846319	0.19472	0.823039
0	H	0.173526	0.831878	0.329129
0	H	0.335569	0.341575	0.0805352
0	H	0.684593	0.685922	0.57509
0	H	0.682685	0.690517	0.409636
0	H	0.337939	0.336472	0.904155
0	H	0.188407	0.851711	0.161161
0	H	0.831301	0.174905	0.655086
0	C	0.858374	0.065057	0.874315
0	C	0.162242	0.96235	0.378683
0	C	0.464243	0.354663	0.131552
0	C	0.555841	0.672188	0.625778
0	C	0.669402	0.560716	0.359279
0	C	0.350581	0.466196	0.853457
0	C	0.0593614	0.863635	0.110368
0	C	0.961187	0.163799	0.606119
0	H	0.927089	0.0728037	0.889048
0	H	0.0939206	0.954724	0.39493
0	H	0.45552	0.423344	0.147685
0	H	0.564445	0.60323	0.640916
0	H	0.600814	0.569028	0.344329
0	H	0.41888	0.457741	0.83747
0	H	0.0668155	0.932886	0.0957418
0	H	0.953873	0.0949479	0.589937
0	C	0.81602	0.986289	0.892205
0	C	0.204852	0.0414486	0.394662
0	C	0.543211	0.3129	0.148288
0	C	0.476906	0.713749	0.643041
0	C	0.710949	0.481363	0.342101
0	C	0.308842	0.545582	0.836827
0	C	0.981132	0.820834	0.0926415
0	C	0.0397536	0.206864	0.590412
0	H	0.851827	0.932382	0.920452
0	H	0.16965	0.0957823	0.422883
0	H	0.596469	0.349108	0.176673
0	H	0.423603	0.677154	0.670926
0	H	0.674683	0.427517	0.314419
0	H	0.344715	0.599377	0.808624
0	H	0.92735	0.856802	0.0646712
0	H	0.0939919	0.171521	0.562516
0	C	0.516334	0.663989	0.913133
0	C	0.502975	0.363905	0.415827
0	C	0.867733	0.0185867	0.173926
0	C	0.152073	0.00801011	0.668916
0	C	0.00420016	0.154968	0.317729
0	C	0.0155811	0.871697	0.81266
0	C	0.6609	0.519514	0.0707011
0	C	0.360122	0.50659	0.568214
0	H	0.491328	0.654033	0.974223
0	H	0.527164	0.373229	0.477312
0	H	0.87608	0.993377	0.235174
0	H	0.143347	0.0336304	0.72997
0	H	0.0288877	0.145258	0.256512
0	H	0.991354	0.881038	0.751233
0	H	0.650938	0.494805	0.00946457
0	H	0.369432	0.530414	0.506566
0	H	0.548637	0.603008	0.894666
0	H	0.470393	0.424867	0.397828
0	H	0.928093	0.0527424	0.157561
0	H	0.0918861	0.973662	0.652396
0	H	0.97069	0.0944716	0.335567
0	H	0.0488782	0.932371	0.830379
0	H	0.600427	0.552131	0.0893361
0	H	0.420579	0.47371	0.586392
0	H	0.458802	0.672886	0.873683
0	H	0.561026	0.355982	0.376859
0	H	0.861674	0.96094	0.133791
0	H	0.158204	0.0654516	0.628541
0	H	0.0618762	0.162145	0.357286
0	H	0.95767	0.864587	0.851925
0	H	0.66952	0.461331	0.10987
0	H	0.352486	0.56534	0.60684
