#******************************************
#
# CIF file created by Zeo++
# Zeo++ is an open source package to
# analyze microporous materials
#
#*******************************************

_cell_length_a		10.7519(0)
_cell_length_b		14.0845(0)
_cell_length_c		14.6085(0)
_cell_angle_alpha		112.942(0)
_cell_angle_beta		91.7282(0)
_cell_angle_gamma		108.325(0)

_symmetry_space_group_name_H-M		'P1'
_symmetry_Int_Tables_number		1
_symmetry_cell_setting		Triclinic

loop_
_symmetry_equiv_pos_as_xyz
'+x,+y,+z'

loop_
_atom_site_label
_atom_site_type_symbol
_atom_site_fract_x
_atom_site_fract_y
_atom_site_fract_z
0	N	0.480457	0.45161	0.133267
0	N	0.479978	0.482332	0.86967
0	N	0.727405	0.541198	0.0924616
0	N	0.236375	0.393626	0.9066
0	N	0.676931	0.326295	0.918011
0	N	0.280293	0.611633	0.077303
0	N	0.434536	0.252695	0.970183
0	N	0.514656	0.678057	0.0245624
0	C	0.413761	0.358568	0.140044
0	C	0.554334	0.573165	0.863118
0	C	0.402965	0.379473	0.247637
0	C	0.579692	0.548496	0.756482
0	H	0.346316	0.317607	0.270453
0	H	0.64436	0.608819	0.734877
0	C	0.474399	0.487699	0.304587
0	C	0.509548	0.440362	0.70008
0	H	0.490186	0.534145	0.384708
0	H	0.503433	0.390887	0.621373
0	C	0.538356	0.534485	0.234845
0	C	0.432379	0.396692	0.767977
0	C	0.650915	0.621853	0.251636
0	C	0.319897	0.308558	0.750024
0	C	0.726807	0.630751	0.171945
0	C	0.247097	0.304557	0.831885
0	C	0.815952	0.732404	0.168578
0	C	0.162387	0.199699	0.840725
0	H	0.832813	0.813818	0.223895
0	H	0.154108	0.118402	0.787828
0	C	0.869186	0.699826	0.0827714
0	C	0.108146	0.232339	0.923691
0	H	0.93984	0.750586	0.0554312
0	H	0.040255	0.184066	0.955503
0	C	0.812225	0.578358	0.0312905
0	C	0.159055	0.358183	0.970976
0	C	0.833907	0.509896	0.93965
0	C	0.13079	0.425511	0.0622067
0	C	0.770934	0.39352	0.885395
0	C	0.190249	0.539315	0.112183
0	C	0.789875	0.325681	0.785279
0	C	0.175901	0.609827	0.217651
0	H	0.85701	0.356399	0.742332
0	H	0.108078	0.576181	0.259561
0	C	0.705874	0.219195	0.759024
0	C	0.260223	0.713123	0.243278
0	H	0.693771	0.147617	0.69169
0	H	0.279113	0.786389	0.311569
0	C	0.632918	0.221278	0.842031
0	C	0.329341	0.711775	0.153426
0	C	0.529435	0.131575	0.849405
0	C	0.434239	0.806079	0.150039
0	C	0.440593	0.145475	0.914899
0	C	0.520669	0.789129	0.0843075
0	C	0.36669	0.0737918	0.961907
0	C	0.61598	0.862074	0.0454142
0	H	0.345468	0.986733	0.931878
0	H	0.647506	0.950675	0.0801452
0	C	0.338389	0.140295	0.0490288
0	C	0.64679	0.795301	0.96098
0	H	0.288868	0.119136	0.104373
0	H	0.710003	0.816114	0.910918
0	C	0.387074	0.253161	0.0536034
0	C	0.577839	0.678732	0.948523
0	C	0.707948	0.712169	0.353625
0	C	0.262581	0.216365	0.649994
0	C	0.835094	0.736103	0.40398
0	C	0.135064	0.192807	0.600146
0	C	0.891311	0.826341	0.498013
0	C	0.0785725	0.103424	0.505819
0	C	0.820698	0.895775	0.543773
0	C	0.149199	0.0341245	0.45945
0	C	0.693343	0.873159	0.495653
0	C	0.276584	0.0563318	0.507273
0	C	0.638484	0.781799	0.40233
0	C	0.33234	0.147077	0.600974
0	F	0.904305	0.672114	0.362297
0	F	0.0663062	0.256697	0.643432
0	F	0.0115074	0.846335	0.543769
0	F	0.958678	0.0842222	0.460335
0	F	0.873975	0.982193	0.63183
0	F	0.0962646	0.948471	0.37101
0	F	0.624624	0.937882	0.537423
0	F	0.344947	0.991599	0.464489
0	F	0.517281	0.761577	0.358691
0	F	0.453462	0.167412	0.644055
0	C	0.94008	0.565675	0.89455
0	C	0.0236974	0.368285	0.105248
0	C	0.930375	0.647293	0.865594
0	C	0.0357521	0.289546	0.137759
0	H	0.839923	0.666838	0.869931
0	H	0.128956	0.27433	0.139304
0	C	0.0377892	0.704414	0.832371
0	C	0.926839	0.230505	0.16806
0	C	0.153976	0.678106	0.82625
0	C	0.808232	0.253425	0.169415
0	H	0.237236	0.722303	0.800555
0	H	0.723877	0.208037	0.193374
0	C	0.16277	0.5959	0.85405
0	C	0.797784	0.333027	0.138551
0	H	0.253284	0.575926	0.852095
0	H	0.705199	0.350278	0.135989
0	C	0.055864	0.539395	0.887322
0	C	0.905564	0.390541	0.106508
0	H	0.0626204	0.475149	0.908688
0	H	0.89402	0.45047	0.0799425
0	C	0.0319832	0.793739	0.805431
0	C	0.932424	0.141966	0.196336
0	H	0.073929	0.794258	0.738256
0	H	0.888094	0.141133	0.262558
0	C	0.982048	0.869973	0.858294
0	C	0.984336	0.0664547	0.145382
0	H	0.941156	0.873017	0.925693
0	H	0.0292927	0.0643259	0.0796713
0	H	0.980476	0.93608	0.838657
0	H	0.985049	0.000402553	0.165557
0	C	0.519059	0.0169351	0.783606
0	C	0.445478	0.918706	0.21892
0	C	0.622217	0.976705	0.788414
0	C	0.343094	0.960555	0.216833
0	C	0.610155	0.868043	0.725434
0	C	0.357062	0.068993	0.281851
0	C	0.492997	0.796436	0.655672
0	C	0.475989	0.138974	0.350223
0	C	0.388535	0.834262	0.649282
0	C	0.579632	0.0994098	0.354109
0	C	0.4027	0.943143	0.712852
0	C	0.563192	0.99048	0.289228
0	F	0.733399	0.0416594	0.854866
0	F	0.230794	0.896394	0.151468
0	F	0.709683	0.83232	0.730741
0	F	0.257997	0.105884	0.279528
0	F	0.481289	0.693794	0.596114
0	F	0.490146	0.241722	0.411048
0	F	0.276955	0.767668	0.583343
0	F	0.692417	0.164458	0.418953
0	F	0.301979	0.976663	0.705142
0	F	0.662151	0.9544	0.294434
