#******************************************
#
# CIF file created by Zeo++
# Zeo++ is an open source package to
# analyze microporous materials
#
#*******************************************

_cell_length_a		10.8043(0)
_cell_length_b		17.7376(0)
_cell_length_c		17.5818(0)
_cell_angle_alpha		90(0)
_cell_angle_beta		100.909(0)
_cell_angle_gamma		90(0)

_symmetry_space_group_name_H-M		'P1'
_symmetry_Int_Tables_number		1
_symmetry_cell_setting		Monoclinic

loop_
_symmetry_equiv_pos_as_xyz
'+x,+y,+z'

loop_
_atom_site_label
_atom_site_type_symbol
_atom_site_fract_x
_atom_site_fract_y
_atom_site_fract_z
0	Cl	0.213994	0.480189	0.823864
0	Cl	0.790225	0.979507	0.180296
0	Cl	0.793888	0.572404	0.812611
0	Cl	0.210227	0.0718027	0.191388
0	Cl	0.090964	0.70758	0.697713
0	Cl	0.913205	0.208335	0.306509
0	Cl	0.571284	0.674053	0.903746
0	Cl	0.432251	0.174119	0.100507
0	O	0.425223	0.216242	0.635058
0	O	0.577939	0.713523	0.367981
0	O	0.887148	0.0809809	0.983145
0	O	0.117249	0.580155	0.021097
0	O	0.881769	0.985903	0.740901
0	O	0.122509	0.486869	0.263255
0	O	0.348294	0.191014	0.821331
0	O	0.656148	0.691082	0.183349
0	N	0.856735	0.231707	0.736025
0	N	0.14736	0.730977	0.268123
0	N	0.525037	0.285414	0.736519
0	N	0.47952	0.785099	0.268099
0	N	0.629254	0.2938	0.942084
0	N	0.374884	0.793023	0.0621791
0	N	0.747254	0.129436	0.883933
0	N	0.256772	0.628827	0.120311
0	N	0.452807	0.944446	0.658435
0	N	0.551328	0.445164	0.345814
0	N	0.745337	0.941709	0.81253
0	N	0.258779	0.442374	0.191658
0	N	0.558505	0.996957	0.970267
0	N	0.445734	0.497102	0.0337937
0	N	0.457227	0.0915064	0.787378
0	N	0.547158	0.591346	0.216782
0	C	0.523564	0.244822	0.669448
0	C	0.480339	0.743483	0.334474
0	C	0.648011	0.230725	0.641745
0	C	0.355939	0.729951	0.362388
0	C	0.631879	0.247936	0.554191
0	C	0.372321	0.747229	0.449931
0	C	0.586134	0.32774	0.530043
0	C	0.418081	0.827026	0.474083
0	C	0.685269	0.389583	0.553298
0	C	0.318892	0.888848	0.450876
0	C	0.712058	0.407028	0.640566
0	C	0.292071	0.906305	0.363612
0	C	0.790325	0.347247	0.685213
0	C	0.213801	0.846536	0.318956
0	C	0.759426	0.271224	0.685986
0	C	0.244643	0.77051	0.31816
0	C	0.913544	0.356603	0.733218
0	C	0.0905678	0.855874	0.270967
0	C	0.994148	0.418872	0.752611
0	C	0.00997698	0.918123	0.251597
0	C	0.11061	0.405221	0.798649
0	C	0.893524	0.904502	0.20554
0	C	0.152266	0.332889	0.826514
0	C	0.851866	0.83218	0.177672
0	C	0.0740221	0.271127	0.809154
0	C	0.930086	0.770397	0.195036
0	C	0.954367	0.283174	0.7625
0	C	0.0497247	0.78244	0.241691
0	C	0.808433	0.129647	0.961189
0	C	0.195735	0.628874	0.0430232
0	C	0.759326	0.187655	0.0131188
0	C	0.244828	0.686925	0.991117
0	C	0.840421	0.188406	0.0953617
0	C	0.163754	0.687717	0.908867
0	C	0.980613	0.206013	0.100361
0	C	0.0235705	0.705347	0.90384
0	C	0.00994883	0.287555	0.0811197
0	C	0.994185	0.786874	0.923102
0	C	0.980636	0.30421	0.993774
0	C	0.0234724	0.803488	0.010455
0	C	0.843076	0.314318	0.966613
0	C	0.16104	0.813583	0.0376104
0	C	0.749331	0.264081	0.977038
0	C	0.254787	0.763345	0.0271899
0	C	0.782386	0.379274	0.925957
0	C	0.221715	0.878572	0.0782182
0	C	0.828336	0.445132	0.896541
0	C	0.17583	0.944472	0.107586
0	C	0.740278	0.494184	0.855917
0	C	0.263864	0.993633	0.148095
0	C	0.608393	0.48304	0.846076
0	C	0.395701	0.982404	0.157934
0	C	0.561152	0.418996	0.875391
0	C	0.442858	0.918265	0.128738
0	C	0.648789	0.366255	0.913936
0	C	0.35528	0.865524	0.0902077
0	C	0.781386	0.95402	0.741819
0	C	0.222801	0.454794	0.262362
0	C	0.689096	0.935103	0.666854
0	C	0.315028	0.435856	0.337338
0	C	0.752571	0.883673	0.614284
0	C	0.251539	0.384426	0.389903
0	C	0.804171	0.808382	0.649552
0	C	0.19997	0.30914	0.354626
0	C	0.703605	0.749725	0.658327
0	C	0.300547	0.250475	0.345882
0	C	0.631829	0.76841	0.723522
0	C	0.3723	0.269147	0.280671
0	C	0.539352	0.829854	0.699696
0	C	0.464797	0.330592	0.304498
0	C	0.56652	0.902075	0.677085
0	C	0.437617	0.40282	0.327129
0	C	0.404041	0.823817	0.69108
0	C	0.60009	0.324551	0.313128
0	C	0.322626	0.764707	0.702371
0	C	0.681505	0.265357	0.301803
0	C	0.194446	0.778594	0.684312
0	C	0.809646	0.279327	0.319897
0	C	0.142705	0.848565	0.655122
0	C	0.861418	0.349322	0.349095
0	C	0.220888	0.907736	0.64417
0	C	0.783254	0.40847	0.36004
0	C	0.352026	0.895255	0.662631
0	C	0.652087	0.395973	0.341581
0	C	0.392734	0.128366	0.838175
0	C	0.611818	0.62846	0.166256
0	C	0.391167	0.0933908	0.91776
0	C	0.613259	0.593649	0.0865412
0	C	0.2581	0.100022	0.937536
0	C	0.746283	0.600262	0.066682
0	C	0.15084	0.0638578	0.879565
0	C	0.853472	0.563949	0.124599
0	C	0.151392	0.977493	0.879435
0	C	0.852642	0.477536	0.124734
0	C	0.255303	0.943152	0.841511
0	C	0.748624	0.443253	0.162601
0	C	0.382053	0.949229	0.891434
0	C	0.62199	0.449306	0.112572
0	C	0.4383	0.0145002	0.925621
0	C	0.565955	0.514712	0.0784445
0	C	0.469996	0.888469	0.913538
0	C	0.533994	0.38854	0.0905405
0	C	0.467575	0.811384	0.895235
0	C	0.536139	0.311446	0.108894
0	C	0.572454	0.76908	0.926302
0	C	0.431213	0.269143	0.0779289
0	C	0.680879	0.799338	0.974757
0	C	0.322863	0.299434	0.0294345
0	C	0.685213	0.875017	0.993987
0	C	0.318835	0.375117	0.0102994
0	C	0.579501	0.919746	0.963214
0	C	0.424549	0.419862	0.0408541
0	H	0.865965	0.175297	0.738578
0	H	0.138138	0.674557	0.265602
0	H	0.44411	0.29057	0.757819
0	H	0.560223	0.789584	0.24643
0	H	0.602071	0.312244	0.765769
0	H	0.402612	0.812039	0.238859
0	H	0.546426	0.276135	0.954344
0	H	0.457668	0.775476	0.0497552
0	H	0.775464	0.0929705	0.846439
0	H	0.228659	0.592336	0.157822
0	H	0.689814	0.171362	0.859814
0	H	0.314232	0.670754	0.144396
0	H	0.443988	0.993846	0.629815
0	H	0.560166	0.494586	0.374415
0	H	0.808454	0.951274	0.86224
0	H	0.19564	0.451905	0.141943
0	H	0.670087	0.909815	0.818294
0	H	0.333968	0.410409	0.185905
0	H	0.617543	0.0331757	0.00273833
0	H	0.38678	0.533355	0.0012739
0	H	0.446389	0.111621	0.732377
0	H	0.557935	0.611101	0.271934
0	H	0.482762	0.0366121	0.794299
0	H	0.521653	0.536467	0.209503
0	H	0.663543	0.168122	0.64871
0	H	0.340114	0.667343	0.355551
0	H	0.563149	0.20691	0.522531
0	H	0.441061	0.706176	0.481542
0	H	0.72301	0.237094	0.535862
0	H	0.281211	0.736394	0.468305
0	H	0.500051	0.340766	0.553188
0	H	0.504097	0.84008	0.450892
0	H	0.556274	0.328268	0.465892
0	H	0.447978	0.827532	0.538235
0	H	0.774374	0.373471	0.534934
0	H	0.229799	0.872708	0.469241
0	H	0.653096	0.441765	0.521036
0	H	0.351042	0.941031	0.483149
0	H	0.621994	0.4134	0.661724
0	H	0.382126	0.912696	0.342445
0	H	0.759828	0.462511	0.651018
0	H	0.24428	0.961781	0.353177
0	H	0.964725	0.475163	0.731676
0	H	0.0394049	0.974417	0.272538
0	H	0.247043	0.325447	0.86046
0	H	0.757094	0.824731	0.143735
0	H	0.105499	0.214881	0.828926
0	H	0.898593	0.714151	0.175285
0	H	0.66252	0.167885	0.0193111
0	H	0.341638	0.667172	0.9849
0	H	0.833153	0.131938	0.121704
0	H	0.17101	0.631253	0.882523
0	H	0.798494	0.2292	0.131029
0	H	0.205701	0.728506	0.873204
0	H	0.0299002	0.193244	0.160343
0	H	0.974386	0.692643	0.84382
0	H	0.0211451	0.166205	0.0628148
0	H	0.982954	0.665516	0.94132
0	H	0.110823	0.299267	0.10373
0	H	0.893301	0.79856	0.900496
0	H	0.956635	0.32725	0.111458
0	H	0.0474683	0.826594	0.892775
0	H	0.032277	0.35538	0.981
0	H	0.971831	0.854648	0.023248
0	H	0.0155538	0.25777	0.960976
0	H	0.988532	0.757032	0.0432219
0	H	0.929425	0.456173	0.904859
0	H	0.0747479	0.95547	0.0993682
0	H	0.544577	0.525154	0.81505
0	H	0.459669	0.0243641	0.189007
0	H	0.460203	0.409415	0.869124
0	H	0.54384	0.908691	0.13499
0	H	0.671406	0.990859	0.635768
0	H	0.332733	0.491612	0.36843
0	H	0.683245	0.872864	0.56012
0	H	0.320856	0.373617	0.444076
0	H	0.830763	0.915906	0.596755
0	H	0.17333	0.416649	0.407422
0	H	0.867543	0.817719	0.706104
0	H	0.136635	0.318469	0.298064
0	H	0.865127	0.783846	0.61139
0	H	0.138967	0.284601	0.392763
0	H	0.749398	0.693859	0.67002
0	H	0.254752	0.194612	0.334223
0	H	0.635896	0.743308	0.602825
0	H	0.368269	0.244082	0.401385
0	H	0.583706	0.717006	0.739454
0	H	0.420415	0.217741	0.264737
0	H	0.699252	0.783939	0.777068
0	H	0.304869	0.284667	0.22713
0	H	0.360299	0.710111	0.723864
0	H	0.643787	0.210794	0.28034
0	H	0.0405399	0.8555	0.641304
0	H	0.963588	0.356236	0.362901
0	H	0.18281	0.96191	0.622131
0	H	0.821298	0.462658	0.382072
0	H	0.455297	0.130588	0.959876
0	H	0.549212	0.63106	0.0446293
0	H	0.237188	0.16096	0.942641
0	H	0.767361	0.661174	0.061512
0	H	0.260822	0.0753882	0.995965
0	H	0.743388	0.575614	0.00823979
0	H	0.150631	0.0850409	0.82028
0	H	0.853796	0.585188	0.183872
0	H	0.0599219	0.0826986	0.894429
0	H	0.944423	0.582684	0.109708
0	H	0.160077	0.955939	0.939426
0	H	0.84396	0.455978	0.064708
0	H	0.0583581	0.957802	0.847167
0	H	0.945563	0.457753	0.157036
0	H	0.255414	0.971053	0.784893
0	H	0.748347	0.471306	0.219128
0	H	0.232319	0.883159	0.827062
0	H	0.771517	0.383288	0.177219
0	H	0.385528	0.786997	0.857499
0	H	0.618093	0.286944	0.146618
0	H	0.760706	0.762351	0.996402
0	H	0.242921	0.262506	0.00786799
0	H	0.766797	0.900155	0.0312078
0	H	0.237158	0.400267	0.973008
