#******************************************
#
# CIF file created by Zeo++
# Zeo++ is an open source package to
# analyze microporous materials
#
#*******************************************

_cell_length_a		18.8993(0)
_cell_length_b		14.6955(0)
_cell_length_c		10.4593(0)
_cell_angle_alpha		90(0)
_cell_angle_beta		111.5(0)
_cell_angle_gamma		90(0)

_symmetry_space_group_name_H-M		'P1'
_symmetry_Int_Tables_number		1
_symmetry_cell_setting		Monoclinic

loop_
_symmetry_equiv_pos_as_xyz
'+x,+y,+z'

loop_
_atom_site_label
_atom_site_type_symbol
_atom_site_fract_x
_atom_site_fract_y
_atom_site_fract_z
0	O	0.399098	0.341848	0.14179
0	O	0.0135519	0.875005	0.851216
0	O	0.49089	0.536111	0.846369
0	O	0.889246	0.0637233	0.139961
0	O	0.365851	0.345631	0.909728
0	O	0.11986	0.851803	0.0168638
0	O	0.591351	0.560147	0.0240746
0	O	0.850366	0.0459408	0.905031
0	N	0.348065	0.385328	0.994201
0	N	0.0677594	0.912694	0.932456
0	N	0.543745	0.498823	0.931593
0	N	0.834337	0.0115455	0.996819
0	N	0.0867497	0.622973	0.747751
0	N	0.277833	0.176515	0.0899963
0	N	0.754694	0.237604	0.0804777
0	N	0.562662	0.791666	0.790991
0	N	0.27956	0.615822	0.626673
0	N	0.148514	0.177613	0.356761
0	N	0.628358	0.225285	0.349158
0	N	0.742831	0.767564	0.635761
0	N	0.282372	0.721243	0.93702
0	N	0.0779252	0.290641	0.0465234
0	N	0.551321	0.122209	0.0359794
0	N	0.75879	0.679224	0.960943
0	N	0.345552	0.693813	0.299808
0	N	0.921304	0.259145	0.720036
0	N	0.399909	0.162722	0.699752
0	N	0.815718	0.713953	0.323231
0	C	0.292663	0.443562	0.983705
0	C	0.0771713	0.00973864	0.954617
0	C	0.556789	0.402195	0.949881
0	C	0.777943	0.956071	0.992048
0	C	0.236072	0.472129	0.851036
0	C	0.131607	0.0404644	0.0793158
0	C	0.606869	0.370454	0.0780775
0	C	0.719511	0.926751	0.862971
0	C	0.230501	0.574336	0.824226
0	C	0.144901	0.141664	0.107737
0	C	0.621949	0.268881	0.100968
0	C	0.70756	0.824623	0.84293
0	C	0.271425	0.631373	0.956186
0	C	0.0825647	0.201098	0.00512992
0	C	0.560073	0.210732	0.994786
0	C	0.749893	0.770019	0.976699
0	C	0.293274	0.591916	0.0864615
0	C	0.0328908	0.164321	0.885431
0	C	0.514572	0.248819	0.872896
0	C	0.77443	0.81234	0.105509
0	C	0.286425	0.493205	0.101297
0	C	0.0375134	0.0691943	0.846988
0	C	0.524329	0.343401	0.837091
0	C	0.773205	0.912288	0.115137
0	C	0.149575	0.601748	0.779735
0	C	0.219623	0.163182	0.0985409
0	C	0.696537	0.249899	0.0898031
0	C	0.625932	0.805372	0.811709
0	C	0.258841	0.597567	0.714334
0	C	0.147791	0.161517	0.248383
0	C	0.626042	0.244579	0.240843
0	C	0.728145	0.792558	0.727571
0	C	0.320684	0.645934	0.203848
0	C	0.971486	0.217253	0.794172
0	C	0.451878	0.200139	0.777263
0	C	0.796064	0.760317	0.224726
0	C	0.187356	0.412263	0.76553
0	C	0.181274	0.978127	0.172028
0	C	0.65028	0.432779	0.179551
0	C	0.675363	0.988408	0.773944
0	C	0.170552	0.31964	0.794744
0	C	0.181479	0.88445	0.128069
0	C	0.649794	0.527709	0.140762
0	C	0.664243	0.0837168	0.800294
0	C	0.122456	0.264734	0.725048
0	C	0.238607	0.819713	0.189054
0	C	0.704593	0.593255	0.209875
0	C	0.619313	0.141609	0.730362
0	C	0.0693567	0.263482	0.581173
0	C	0.297448	0.835813	0.318194
0	C	0.760393	0.576642	0.341619
0	C	0.566714	0.143449	0.586306
0	C	0.0885011	0.354499	0.551289
0	C	0.287411	0.925032	0.355383
0	C	0.749136	0.486905	0.374848
0	C	0.581419	0.0501348	0.558682
0	C	0.132647	0.413048	0.623439
0	C	0.240514	0.986494	0.297973
0	C	0.705071	0.424609	0.310656
0	C	0.621261	0.988775	0.631922
0	C	0.0261859	0.189834	0.534037
0	C	0.350924	0.768251	0.391558
0	C	0.813683	0.644096	0.417417
0	C	0.525746	0.218268	0.535084
0	C	0.271422	0.454461	0.205173
0	C	0.010781	0.0484311	0.704858
0	C	0.50896	0.363741	0.697317
0	C	0.763359	0.955527	0.220938
0	C	0.264269	0.490863	0.3299
0	C	0.0118673	0.113096	0.605293
0	C	0.510996	0.296916	0.601159
0	C	0.760876	0.922941	0.351488
0	C	0.257954	0.451797	0.430031
0	C	0.985501	0.109884	0.459778
0	C	0.489673	0.299101	0.455699
0	C	0.756384	0.965512	0.450371
0	C	0.255019	0.356696	0.466619
0	C	0.952515	0.030107	0.385371
0	C	0.46323	0.379508	0.377606
0	C	0.751148	0.061409	0.480305
0	C	0.260761	0.321241	0.341162
0	C	0.957015	0.967429	0.489127
0	C	0.470208	0.443777	0.481509
0	C	0.752949	0.0928393	0.34963
0	C	0.264406	0.359076	0.238111
0	C	0.981079	0.974046	0.61741
0	C	0.489012	0.43951	0.609297
0	C	0.756787	0.0518972	0.249069
0	C	0.25019	0.31333	0.575196
0	C	0.915255	0.0264228	0.245475
0	C	0.426113	0.394201	0.23696
0	C	0.745173	0.108223	0.585383
0	H	0.263736	0.750276	0.842664
0	H	0.126131	0.319671	0.113404
0	H	0.598218	0.091026	0.103141
0	H	0.737692	0.648262	0.867964
0	H	0.298854	0.76579	0.0173809
0	H	0.045644	0.334809	0.973763
0	H	0.517709	0.0792953	0.962705
0	H	0.776665	0.636359	0.0430472
