#******************************************
#
# CIF file created by Zeo++
# Zeo++ is an open source package to
# analyze microporous materials
#
#*******************************************

_cell_length_a		12.652(0)
_cell_length_b		14.6028(0)
_cell_length_c		27.315(0)
_cell_angle_alpha		90(0)
_cell_angle_beta		59.7583(0)
_cell_angle_gamma		90(0)

_symmetry_space_group_name_H-M		'P1'
_symmetry_Int_Tables_number		1
_symmetry_cell_setting		Monoclinic

loop_
_symmetry_equiv_pos_as_xyz
'+x,+y,+z'

loop_
_atom_site_label
_atom_site_type_symbol
_atom_site_fract_x
_atom_site_fract_y
_atom_site_fract_z
0	C	0.0475286	0.140989	0.754556
0	C	0.491336	0.668568	0.253299
0	C	0.87569	0.25827	0.784552
0	C	0.672169	0.772916	0.225735
0	C	0.932301	0.295258	0.723027
0	C	0.614052	0.81045	0.287213
0	C	0.91114	0.32183	0.818937
0	C	0.643841	0.836423	0.188836
0	C	0.84387	0.297077	0.882633
0	C	0.703324	0.801421	0.127084
0	C	0.910789	0.338788	0.911117
0	C	0.63398	0.837382	0.0984052
0	C	0.710448	0.329175	0.91236
0	C	0.838692	0.828223	0.0933582
0	C	0.143337	0.404144	0.557102
0	C	0.397492	0.906699	0.451458
0	C	0.737593	0.380928	0.750465
0	C	0.810943	0.888142	0.263614
0	C	0.894735	0.347516	0.646815
0	C	0.649891	0.850008	0.365793
0	C	0.9278	0.448952	0.629125
0	C	0.616139	0.951103	0.383865
0	C	0.794245	0.318927	0.632567
0	C	0.746898	0.81797	0.381419
0	C	0.760124	0.217852	0.645835
0	C	0.780475	0.717227	0.366318
0	C	0.840963	0.336984	0.569732
0	C	0.696213	0.832036	0.444892
0	C	0.0801606	0.570851	0.57736
0	C	0.46373	0.0726837	0.433222
0	C	0.128819	0.600146	0.515349
0	C	0.412951	0.101284	0.495576
0	C	0.177727	0.589309	0.595176
0	C	0.368226	0.092546	0.414318
0	C	0.224279	0.689716	0.587184
0	C	0.322675	0.193259	0.42291
0	C	0.363344	0.692071	0.548887
0	C	0.18394	0.196913	0.46169
0	C	0.182638	0.725188	0.647542
0	C	0.362884	0.229003	0.362842
0	C	0.0930533	0.65363	0.687932
0	C	0.452222	0.157668	0.32186
0	C	0.11507	0.62209	0.735333
0	C	0.427722	0.127554	0.274916
0	C	0.0310477	0.544323	0.768237
0	C	0.508805	0.0485784	0.241784
0	C	0.0809865	0.648764	0.440791
0	C	0.458761	0.157278	0.569723
0	C	0.0134366	0.739086	0.444958
0	C	0.52653	0.247903	0.564727
0	C	0.0479851	0.577551	0.408836
0	C	0.491056	0.0875274	0.602626
0	C	0.103599	0.601606	0.346251
0	C	0.436983	0.113835	0.664738
0	C	0.0233739	0.902975	0.418038
0	C	0.515699	0.412728	0.590607
0	C	0.214443	0.808451	0.371051
0	C	0.325747	0.317354	0.638973
0	C	0.0763601	0.936109	0.491686
0	C	0.463321	0.443333	0.516602
0	C	0.84833	0.96075	0.554135
0	C	0.692389	0.462227	0.454522
0	C	0.977478	0.886129	0.590062
0	C	0.562653	0.387142	0.419251
0	C	0.886993	0.739541	0.610987
0	C	0.657065	0.24216	0.397992
0	C	0.969635	0.953729	0.634116
0	C	0.567495	0.45312	0.375164
0	C	0.0789422	0.0210755	0.610291
0	C	0.459759	0.521906	0.399378
0	C	0.158962	0.0015624	0.636679
0	C	0.379791	0.50564	0.372533
0	C	0.023502	0.11723	0.623553
0	C	0.51618	0.618209	0.387442
0	C	0.658001	0.713351	0.673971
0	C	0.887842	0.219572	0.337195
0	C	0.626432	0.697557	0.735579
0	C	0.921916	0.207989	0.274899
0	C	0.580294	0.651748	0.657288
0	C	0.964846	0.157594	0.354067
0	C	0.607893	0.677148	0.597801
0	C	0.936391	0.183434	0.413658
0	C	0.605168	0.550094	0.661814
0	C	0.940341	0.0558678	0.349327
0	C	0.406425	0.755131	0.778642
0	C	0.144078	0.258016	0.231462
0	C	0.470496	0.642795	0.830227
0	C	0.0740944	0.146606	0.181709
0	C	0.370571	0.571374	0.840833
0	C	0.171526	0.0726726	0.170145
0	C	0.432524	0.704161	0.881891
0	C	0.1115	0.208734	0.130403
0	C	0.419373	0.649584	0.933153
0	C	0.122947	0.155606	0.0790095
0	C	0.536902	0.597855	0.918951
0	C	0.00357171	0.106428	0.093429
0	C	0.384375	0.715172	0.982849
0	C	0.159181	0.221892	0.0294909
0	C	0.334628	0.423422	0.805542
0	C	0.205657	0.923135	0.203691
0	C	0.416849	0.338007	0.779782
0	C	0.121595	0.838684	0.229627
0	C	0.27067	0.444985	0.772114
0	C	0.271769	0.940908	0.236585
0	C	0.461701	0.179328	0.799094
0	C	0.0770451	0.678424	0.212982
0	C	0.550254	0.183658	0.822602
0	C	0.987856	0.684506	0.189889
0	C	0.377149	0.0963569	0.823881
0	C	0.159381	0.594399	0.188345
0	C	0.663041	0.0446278	0.764163
0	C	0.871645	0.545926	0.248201
0	C	0.695943	0.104507	0.843034
0	C	0.838657	0.609821	0.170347
0	C	0.835186	0.0880526	0.806093
0	C	0.697828	0.600582	0.206933
0	C	0.638784	0.0237674	0.88452
0	C	0.890638	0.527125	0.129952
0	C	0.524153	0.0506314	0.941019
0	C	0.00658589	0.550731	0.072978
0	C	0.455377	0.964279	0.973192
0	C	0.075338	0.462862	0.0428348
0	C	0.56692	0.110915	0.973939
0	C	0.964939	0.608393	0.0386502
0	H	0.16312	0.370505	0.58808
0	H	0.38105	0.876591	0.418502
0	H	0.142503	0.794104	0.653821
0	H	0.402644	0.298049	0.356542
0	H	0.731874	0.450798	0.735812
0	H	0.815665	0.956892	0.279816
0	H	0.73252	0.389004	0.791783
0	H	0.818882	0.898726	0.221915
0	H	0.65666	0.34135	0.757447
0	H	0.891011	0.847984	0.257283
0	H	0.977168	0.301847	0.622651
0	H	0.566718	0.804455	0.388334
0	H	0.710031	0.361106	0.658855
0	H	0.831471	0.860369	0.356753
0	H	0.725952	0.202642	0.690607
0	H	0.81757	0.705359	0.321037
0	H	0.838911	0.173025	0.620342
0	H	0.700809	0.672419	0.389779
0	H	0.687515	0.19987	0.636377
0	H	0.850433	0.696509	0.376783
0	H	0.929558	0.304342	0.542464
0	H	0.607005	0.799162	0.470553
0	H	0.849828	0.410058	0.55982
0	H	0.687406	0.90441	0.456349
0	H	0.261918	0.733474	0.653639
0	H	0.28281	0.237052	0.357257
0	H	0.777061	0.308471	0.557355
0	H	0.758129	0.801201	0.457709
0	H	0.995822	0.670654	0.703734
0	H	0.549839	0.174775	0.305308
0	H	0.21195	0.602904	0.718518
0	H	0.329828	0.110655	0.292314
0	H	0.0467369	0.486837	0.738862
0	H	0.49334	0.991177	0.271093
0	H	0.933882	0.561657	0.787012
0	H	0.606779	0.0645374	0.22162
0	H	0.0440146	0.518807	0.802601
0	H	0.49204	0.0239331	0.208365
0	H	0.950322	0.619878	0.52769
0	H	0.590683	0.126341	0.483035
0	H	0.183959	0.658866	0.417229
0	H	0.356097	0.168101	0.59278
0	H	0.946999	0.572295	0.429226
0	H	0.591926	0.0816648	0.581967
0	H	0.229712	0.436592	0.524268
0	H	0.310696	0.939699	0.48343
0	H	0.0805796	0.509161	0.41347
0	H	0.45733	0.0190655	0.599077
0	H	0.20388	0.605301	0.324375
0	H	0.336952	0.118746	0.686797
0	H	0.0707756	0.668294	0.340366
0	H	0.471442	0.180459	0.669596
0	H	0.0803114	0.549758	0.324183
0	H	0.459548	0.0625458	0.687286
0	H	0.258458	0.756294	0.384474
0	H	0.280757	0.264003	0.626794
0	H	0.255781	0.875117	0.371589
0	H	0.283396	0.383384	0.638133
0	H	0.238698	0.793527	0.327132
0	H	0.303325	0.303603	0.682821
0	H	0.0517586	0.940077	0.377239
0	H	0.487079	0.4502	0.631303
0	H	0.922477	0.898973	0.444774
0	H	0.616519	0.409232	0.563836
0	H	0.859055	0.00794752	0.520499
0	H	0.68392	0.513313	0.486163
0	H	0.117643	0.351726	0.535753
0	H	0.418874	0.852244	0.473241
0	H	0.803081	0.999031	0.594312
0	H	0.740913	0.495436	0.412593
0	H	0.788582	0.904039	0.557619
0	H	0.747088	0.40404	0.45483
0	H	0.0589634	0.839718	0.57378
0	H	0.483535	0.338803	0.436106
0	H	0.882206	0.992304	0.653177
0	H	0.655932	0.490568	0.354024
0	H	0.963179	0.915595	0.670801
0	H	0.570925	0.412843	0.339968
0	H	0.138106	0.0131972	0.56285
0	H	0.399795	0.513597	0.446757
0	H	0.190295	0.929976	0.629959
0	H	0.346006	0.434672	0.379413
0	H	0.10832	0.0144184	0.683064
0	H	0.430566	0.518082	0.32621
0	H	0.24175	0.044617	0.616767
0	H	0.298047	0.550412	0.392474
0	H	0.946504	0.123023	0.667201
0	H	0.595371	0.623957	0.344246
0	H	0.99622	0.612987	0.606728
0	H	0.548969	0.114275	0.40415
0	H	0.988123	0.134629	0.595289
0	H	0.549807	0.634203	0.416542
0	H	0.0904281	0.169445	0.617938
0	H	0.45065	0.671267	0.392304
0	H	0.800612	0.615888	0.634003
0	H	0.746887	0.120083	0.377265
0	H	0.645039	0.787832	0.669212
0	H	0.899662	0.293769	0.343322
0	H	0.481338	0.663898	0.687561
0	H	0.0642289	0.169181	0.323969
0	H	0.703968	0.664748	0.566174
0	H	0.839059	0.175563	0.444999
0	H	0.589771	0.749313	0.59465
0	H	0.960815	0.254326	0.416049
0	H	0.55285	0.636182	0.585408
0	H	0.986403	0.139245	0.427356
0	H	0.617519	0.535822	0.698555
0	H	0.931665	0.0423881	0.311535
0	H	0.690398	0.523953	0.624848
0	H	0.853133	0.0299344	0.385545
0	H	0.253934	0.538306	0.575507
0	H	0.29205	0.0416853	0.433348
0	H	0.528799	0.505762	0.668287
0	H	0.015795	0.0118951	0.344251
0	H	0.441301	0.793253	0.738501
0	H	0.112769	0.293937	0.271971
0	H	0.371813	0.805281	0.813861
0	H	0.174216	0.310311	0.19766
0	H	0.326064	0.714449	0.78491
0	H	0.2265	0.217689	0.222688
0	H	0.556129	0.604161	0.821907
0	H	0.986558	0.109801	0.190943
0	H	0.501478	0.759323	0.870208
0	H	0.0421464	0.263863	0.142945
0	H	0.34446	0.73794	0.893919
0	H	0.199771	0.24255	0.118086
0	H	0.343714	0.598608	0.945763
0	H	0.197309	0.103303	0.0661154
0	H	0.61545	0.644661	0.904202
0	H	0.926099	0.154538	0.108978
0	H	0.561018	0.546326	0.885704
0	H	0.979062	0.0535605	0.125952
0	H	0.182159	0.73207	0.567336
0	H	0.366619	0.234424	0.44246
0	H	0.526904	0.561501	0.956151
0	H	0.0115917	0.0719942	0.0560704
0	H	0.299313	0.75169	0.994561
0	H	0.243814	0.258522	0.0184384
0	H	0.455911	0.766434	0.972247
0	H	0.0876204	0.273061	0.0398289
0	H	0.371734	0.678093	0.0202322
0	H	0.173178	0.185238	0.991752
0	H	0.494467	0.507107	0.76294
0	H	0.0478171	0.00871515	0.248288
0	H	0.262754	0.413395	0.851666
0	H	0.275569	0.913481	0.157275
0	H	0.334795	0.452761	0.726351
0	H	0.207999	0.947914	0.282345
0	H	0.219432	0.509892	0.787226
0	H	0.324994	0.00467972	0.222133
0	H	0.204636	0.391309	0.777699
0	H	0.335311	0.885043	0.230504
0	H	0.335717	0.273494	0.859676
0	H	0.210547	0.768049	0.151937
0	H	0.389829	0.670626	0.505253
0	H	0.15721	0.173791	0.504956
0	H	0.515725	0.176354	0.751237
0	H	0.0233514	0.67661	0.260791
0	H	0.308766	0.0951773	0.81026
0	H	0.227545	0.591302	0.202022
0	H	0.326262	0.0965574	0.870537
0	H	0.209999	0.594448	0.141714
0	H	0.42801	0.0313262	0.810354
0	H	0.106691	0.530341	0.201986
0	H	0.685549	0.0760851	0.723154
0	H	0.848815	0.575809	0.289668
0	H	0.583585	0.998727	0.778761
0	H	0.95027	0.49858	0.233427
0	H	0.743066	0.00166282	0.756342
0	H	0.791459	0.503778	0.255222
0	H	0.678596	0.169832	0.868518
0	H	0.860954	0.674371	0.14378
0	H	0.620776	0.965908	0.864066
0	H	0.905349	0.46797	0.150963
0	H	0.708227	0.996079	0.894196
0	H	0.819498	0.502023	0.120667
0	H	0.409118	0.644659	0.563839
0	H	0.136557	0.152399	0.446294
0	H	0.459791	0.0916791	0.933001
0	H	0.0709157	0.592855	0.0805189
0	H	0.503148	0.926924	0.990959
0	H	0.0281124	0.422992	0.0257317
0	H	0.440767	0.916747	0.946162
0	H	0.0889179	0.41755	0.0712175
0	H	0.364951	0.98062	0.00915366
0	H	0.165999	0.478057	0.00654227
0	H	0.562541	0.184136	0.965139
0	H	0.968131	0.68184	0.0470442
0	H	0.662541	0.0956925	0.961699
0	H	0.870063	0.591872	0.0503266
0	H	0.513439	0.101586	0.0201716
0	H	0.0199059	0.598661	0.992598
0	H	0.101429	0.189226	0.71934
0	H	0.440048	0.716581	0.289032
0	H	0.0648939	0.0708448	0.735645
0	H	0.462547	0.598094	0.270293
0	H	0.0802805	0.143746	0.784849
0	H	0.466208	0.681344	0.220841
0	H	0.400695	0.760642	0.546815
0	H	0.149056	0.266399	0.464525
0	H	0.772436	0.259101	0.80547
0	H	0.774918	0.769795	0.206301
0	H	0.0112462	0.320595	0.801457
0	H	0.54377	0.843644	0.207397
0	H	0.888642	0.393426	0.813981
0	H	0.677773	0.906436	0.188974
0	H	0.844811	0.220854	0.886884
0	H	0.697219	0.724842	0.127543
0	H	0.914167	0.413726	0.908585
0	H	0.630779	0.912324	0.0980094
0	H	0.00476871	0.313546	0.892015
0	H	0.539801	0.811979	0.11945
0	H	0.864507	0.320949	0.956267
0	H	0.678165	0.81482	0.0540721
0	H	0.659412	0.29873	0.893495
0	H	0.890727	0.799543	0.112224
0	H	0.702832	0.403643	0.910498
0	H	0.851726	0.902513	0.0911487
0	H	0.662062	0.310173	0.957363
0	H	0.882	0.803154	0.0495543
0	I	0.0864099	0.739164	0.791285
0	I	0.45937	0.245563	0.219451
0	N	0.0433677	0.472667	0.584364
0	N	0.498918	0.974245	0.427113
0	N	0.914816	0.162173	0.782806
0	N	0.625339	0.678668	0.229509
0	N	0.852716	0.335969	0.70806
0	N	0.695582	0.841211	0.304049
0	N	0.0420603	0.616628	0.498966
0	N	0.498649	0.123876	0.511653
0	N	0.0794051	0.810799	0.407987
0	N	0.460506	0.320166	0.601082
0	N	0.970802	0.928174	0.541656
0	N	0.569103	0.431732	0.467066
0	N	0.787889	0.686675	0.63591
0	N	0.758139	0.19132	0.374519
0	N	0.500435	0.693077	0.777467
0	N	0.0485502	0.195555	0.234373
0	N	0.41778	0.497304	0.802529
0	N	0.123249	0.998435	0.208215
0	N	0.385601	0.26343	0.816726
0	N	0.155813	0.761191	0.194863
0	N	0.640848	0.116921	0.806279
0	N	0.894834	0.61968	0.206816
0	O	0.237753	0.608694	0.481235
0	O	0.303585	0.105747	0.529623
0	O	0.116294	0.569548	0.654978
0	O	0.431154	0.0734127	0.354353
0	O	0.0408097	0.28634	0.687103
0	O	0.504178	0.806923	0.321805
0	O	0.847284	0.50751	0.651074
0	O	0.696295	0.0103077	0.363378
0	O	0.903067	0.746824	0.477177
0	O	0.636913	0.25553	0.532491
0	O	0.077799	0.959035	0.443119
0	O	0.460236	0.467081	0.565214
0	O	0.865684	0.831092	0.621061
0	O	0.675588	0.333752	0.388135
0	O	0.702377	0.679763	0.749349
0	O	0.847349	0.200136	0.259305
0	O	0.265121	0.572564	0.879443
0	O	0.276181	0.0719387	0.130624
0	O	0.499162	0.33323	0.730499
0	O	0.0354904	0.836993	0.278136
0	O	0.543962	0.245909	0.854102
0	O	0.995907	0.746214	0.157774
0	O	0.877176	0.0102678	0.798629
0	O	0.648162	0.525827	0.214868
