#******************************************
#
# CIF file created by Zeo++
# Zeo++ is an open source package to
# analyze microporous materials
#
#*******************************************

_cell_length_a		19.173(0)
_cell_length_b		10.6565(0)
_cell_length_c		13.8996(0)
_cell_angle_alpha		90(0)
_cell_angle_beta		114.25(0)
_cell_angle_gamma		90(0)

_symmetry_space_group_name_H-M		'P1'
_symmetry_Int_Tables_number		1
_symmetry_cell_setting		Monoclinic

loop_
_symmetry_equiv_pos_as_xyz
'+x,+y,+z'

loop_
_atom_site_label
_atom_site_type_symbol
_atom_site_fract_x
_atom_site_fract_y
_atom_site_fract_z
0	C	0.359945	0.449887	0.0952989
0	C	0.670881	0.449957	0.900697
0	C	0.862339	0.951497	0.0943405
0	C	0.168449	0.951657	0.901691
0	H	0.360764	0.408169	0.023769
0	H	0.670121	0.408232	0.972269
0	H	0.86251	0.910316	0.022229
0	H	0.168334	0.910508	0.973848
0	C	0.374125	0.377008	0.184824
0	C	0.656691	0.377126	0.811168
0	C	0.877156	0.878084	0.183756
0	C	0.153636	0.878226	0.812248
0	H	0.38678	0.277272	0.185041
0	H	0.64411	0.277372	0.810963
0	H	0.889623	0.778345	0.183378
0	H	0.14121	0.778483	0.812654
0	C	0.372158	0.432645	0.274809
0	C	0.658527	0.432862	0.721124
0	C	0.876141	0.933176	0.274489
0	C	0.15459	0.933385	0.721522
0	H	0.38354	0.376191	0.345169
0	H	0.647102	0.376464	0.650726
0	H	0.888173	0.876367	0.344847
0	H	0.142556	0.876624	0.651125
0	C	0.355893	0.560316	0.274971
0	C	0.67472	0.560548	0.720967
0	C	0.860001	0.0607994	0.275422
0	C	0.170685	0.0610442	0.720615
0	H	0.354485	0.60311	0.345425
0	H	0.676044	0.603407	0.650489
0	H	0.859455	0.10311	0.346519
0	H	0.171229	0.103399	0.649516
0	C	0.340995	0.634636	0.185168
0	C	0.68963	0.634861	0.810814
0	C	0.844262	0.135583	0.185648
0	C	0.186388	0.135811	0.810359
0	C	0.343433	0.578112	0.0947604
0	C	0.687263	0.578256	0.901211
0	C	0.846046	0.0796804	0.094616
0	C	0.184644	0.0798583	0.901408
0	C	0.32291	0.770475	0.187934
0	C	0.707617	0.770723	0.807995
0	C	0.826062	0.271233	0.189141
0	C	0.204543	0.271475	0.806879
0	H	0.323923	0.799452	0.264449
0	H	0.706448	0.799738	0.731395
0	H	0.828038	0.299845	0.266239
0	H	0.202547	0.300084	0.729773
0	H	0.265781	0.795395	0.128037
0	H	0.764775	0.795728	0.867745
0	H	0.768552	0.295979	0.130213
0	H	0.262033	0.296289	0.865791
0	H	0.363864	0.831626	0.173224
0	H	0.666692	0.831765	0.822868
0	H	0.866365	0.332862	0.173411
0	H	0.164211	0.333049	0.822605
0	C	0.519532	0.80188	0.190283
0	C	0.511026	0.802056	0.805921
0	C	0.0203493	0.307191	0.192412
0	C	0.0103357	0.307234	0.803733
0	H	0.489779	0.720373	0.203902
0	H	0.540835	0.720568	0.792135
0	H	0.991394	0.223071	0.203498
0	H	0.0393353	0.223419	0.792481
0	H	0.548737	0.848879	0.266826
0	H	0.48169	0.849087	0.729435
0	H	0.0464863	0.35397	0.269496
0	H	0.984023	0.354095	0.726714
0	H	0.565169	0.765638	0.168108
0	H	0.465525	0.765555	0.828229
0	H	0.0681062	0.274786	0.173164
0	H	0.962626	0.274534	0.823104
0	C	0.467588	0.887513	0.106581
0	C	0.563022	0.887618	0.889623
0	C	0.968616	0.391591	0.107374
0	C	0.0620291	0.391674	0.888778
0	C	0.472343	0.0176178	0.1247
0	C	0.558224	0.0177154	0.871527
0	C	0.972492	0.521877	0.12458
0	C	0.0581221	0.521983	0.871613
0	H	0.512663	0.0541783	0.200402
0	H	0.517841	0.0542657	0.79587
0	H	0.0118503	0.559424	0.200465
0	H	0.0187098	0.559476	0.795721
0	C	0.425712	0.100013	0.0469115
0	C	0.604911	0.100103	0.949282
0	C	0.9262	0.603338	0.0456387
0	C	0.104416	0.603457	0.950522
0	H	0.428878	0.20049	0.0627087
0	H	0.601721	0.200579	0.93353
0	H	0.928839	0.704007	0.0606916
0	H	0.101753	0.704166	0.935472
0	C	0.374443	0.054416	0.949053
0	C	0.65627	0.0544584	0.0470748
0	C	0.876119	0.556571	0.947543
0	C	0.154544	0.556657	0.0485822
0	H	0.338659	0.118748	0.887894
0	H	0.692086	0.118785	0.108206
0	H	0.840644	0.62016	0.88544
0	H	0.19003	0.620258	0.110685
0	C	0.368178	0.925433	0.930656
0	C	0.662565	0.925471	0.0654348
0	C	0.870699	0.427409	0.930086
0	C	0.160005	0.42748	0.0660274
0	H	0.327561	0.888715	0.854959
0	H	0.703264	0.888735	0.141069
0	H	0.83095	0.389774	0.854233
0	H	0.199795	0.389831	0.141853
0	C	0.413664	0.841645	0.00920158
0	C	0.617021	0.841696	0.986927
0	C	0.91587	0.344499	0.00969857
0	C	0.114818	0.344579	0.986428
0	C	0.328068	0.65439	0.997464
0	C	0.702614	0.654443	0.998557
0	C	0.830699	0.156849	0.997771
0	C	0.199989	0.15695	0.998294
0	H	0.284934	0.729889	0.985349
0	H	0.745741	0.73001	0.0107003
0	H	0.787704	0.232436	0.986196
0	H	0.242998	0.23253	0.00990663
0	C	0.40215	0.703418	0.989704
0	C	0.62856	0.703455	0.00639072
0	C	0.905013	0.206046	0.990738
0	C	0.125689	0.206114	0.00536466
0	H	0.453511	0.646378	0.0368182
0	H	0.577203	0.646418	0.959285
0	H	0.956493	0.149622	0.0385746
0	H	0.074209	0.149699	0.957524
0	C	0.333822	0.579968	0.840846
0	C	0.696952	0.579927	0.155195
0	C	0.836689	0.0833462	0.841064
0	C	0.194024	0.0833194	0.154999
0	C	0.285034	0.587246	0.724133
0	C	0.745789	0.587128	0.271896
0	C	0.788589	0.0927318	0.724215
0	C	0.242193	0.0925875	0.271852
0	H	0.238683	0.515904	0.703127
0	H	0.792102	0.515686	0.292846
0	H	0.741575	0.0224177	0.701805
0	H	0.289202	0.0223116	0.294145
0	H	0.255087	0.679165	0.703777
0	H	0.775791	0.678976	0.292273
0	H	0.759537	0.185382	0.704599
0	H	0.271251	0.185235	0.291505
0	C	0.333532	0.567626	0.659358
0	C	0.697332	0.567516	0.33673
0	C	0.837664	0.0727807	0.660264
0	C	0.193146	0.0726234	0.335858
0	H	0.363599	0.658491	0.658589
0	H	0.667326	0.658431	0.337604
0	H	0.869049	0.162784	0.661393
0	H	0.161795	0.162652	0.3348
0	C	0.39207	0.465134	0.705669
0	C	0.638734	0.465126	0.290391
0	C	0.89453	0.967875	0.705634
0	C	0.136242	0.967772	0.290465
0	C	0.409041	0.417898	0.803396
0	C	0.621744	0.417878	0.192666
0	C	0.910119	0.919119	0.802531
0	C	0.120599	0.919101	0.193528
0	C	0.463377	0.315476	0.857195
0	C	0.567358	0.315502	0.13891
0	C	0.962169	0.813471	0.854739
0	C	0.068511	0.813525	0.141306
0	H	0.449896	0.269067	0.918297
0	H	0.580439	0.269639	0.0772528
0	H	0.950113	0.771379	0.918629
0	H	0.0801904	0.771947	0.076922
0	H	0.522403	0.351623	0.895878
0	H	0.50827	0.351543	0.100945
0	H	0.0224068	0.844588	0.889276
0	H	0.00824701	0.844505	0.107434
0	H	0.463227	0.242284	0.800417
0	H	0.567887	0.241886	0.195574
0	H	0.957568	0.73806	0.797473
0	H	0.0734475	0.737743	0.19843
0	C	0.431877	0.417465	0.641411
0	C	0.598835	0.417568	0.354558
0	C	0.93432	0.918811	0.641839
0	C	0.0963368	0.918858	0.354147
0	C	0.457755	0.511565	0.582779
0	C	0.572936	0.511789	0.413062
0	C	0.9616	0.0121576	0.584209
0	C	0.0690789	0.0123592	0.411694
0	H	0.478613	0.465169	0.528768
0	H	0.551868	0.465523	0.466902
0	H	0.984591	0.965185	0.532657
0	H	0.0458415	0.965486	0.46301
0	H	0.50551	0.567913	0.63829
0	H	0.525328	0.568306	0.357473
0	H	0.00812202	0.0698538	0.640622
0	H	0.0226817	0.0702035	0.355194
0	H	0.412762	0.578119	0.536203
0	H	0.618007	0.5782	0.459748
0	H	0.916704	0.077387	0.535236
0	H	0.114024	0.0774194	0.460805
0	C	0.257967	0.627308	0.470456
0	C	0.772749	0.626839	0.525757
0	C	0.763354	0.137349	0.472129
0	C	0.26748	0.137007	0.524044
0	C	0.197231	0.589632	0.366136
0	C	0.833527	0.589096	0.630024
0	C	0.703868	0.101832	0.366294
0	C	0.326941	0.101328	0.629839
0	H	0.177097	0.492532	0.362058
0	H	0.853874	0.492158	0.633907
0	H	0.685115	0.00368283	0.358729
0	H	0.345886	0.00329404	0.637176
0	H	0.216551	0.602533	0.302469
0	H	0.814112	0.60143	0.693643
0	H	0.723491	0.12079	0.303657
0	H	0.307174	0.119683	0.692421
0	H	0.146718	0.65212	0.347413
0	H	0.883904	0.651954	0.648923
0	H	0.652148	0.161277	0.348392
0	H	0.378564	0.16111	0.647986
0	O	0.291224	0.575979	0.902847
0	O	0.739488	0.575957	0.0931166
0	O	0.793685	0.0796316	0.90251
0	O	0.236992	0.0796257	0.093499
0	O	0.387401	0.678827	0.878996
0	O	0.643343	0.678743	0.117104
0	O	0.8911	0.180835	0.880434
0	O	0.139622	0.180859	0.115671
0	O	0.378636	0.462923	0.870284
0	O	0.652119	0.462864	0.125757
0	O	0.880334	0.965144	0.869715
0	O	0.150348	0.965162	0.126313
0	O	0.446364	0.306241	0.639232
0	O	0.584304	0.306366	0.356748
0	O	0.947781	0.807225	0.639462
0	O	0.0825863	0.807376	0.356429
0	O	0.288572	0.731265	0.488777
0	O	0.741971	0.730646	0.507578
0	O	0.793854	0.241333	0.493075
0	O	0.237012	0.241018	0.503173
0	N	0.280159	0.536053	0.549526
0	N	0.750752	0.535813	0.446506
0	N	0.784746	0.0440897	0.54949
0	N	0.24609	0.0438514	0.446594
0	H	0.258969	0.44575	0.53601
0	H	0.77191	0.445482	0.459929
0	H	0.762878	0.954515	0.534397
0	H	0.267836	0.954183	0.461662
