#******************************************
#
# CIF file created by Zeo++
# Zeo++ is an open source package to
# analyze microporous materials
#
#*******************************************

_cell_length_a		9.69055(0)
_cell_length_b		13.769(0)
_cell_length_c		13.642(0)
_cell_angle_alpha		80.4262(0)
_cell_angle_beta		76.7905(0)
_cell_angle_gamma		60.1779(0)

_symmetry_space_group_name_H-M		'P1'
_symmetry_Int_Tables_number		1
_symmetry_cell_setting		Triclinic

loop_
_symmetry_equiv_pos_as_xyz
'+x,+y,+z'

loop_
_atom_site_label
_atom_site_type_symbol
_atom_site_fract_x
_atom_site_fract_y
_atom_site_fract_z
0	C	0.555486	0.71585	0.67991
0	C	0.544838	0.631947	0.625553
0	H	0.431953	0.626867	0.65405
0	H	0.542666	0.66062	0.544292
0	C	0.694004	0.516433	0.636132
0	H	0.689822	0.455819	0.594143
0	H	0.690251	0.483081	0.715832
0	C	0.853765	0.519557	0.596801
0	H	0.956139	0.436679	0.612862
0	H	0.868069	0.534757	0.513201
0	C	0.863379	0.611455	0.641231
0	H	0.97448	0.615656	0.603463
0	H	0.870927	0.591581	0.722871
0	C	0.714671	0.72323	0.625294
0	C	0.682879	0.833944	0.661375
0	H	0.713408	0.822105	0.737783
0	H	0.752125	0.872313	0.610646
0	C	0.501917	0.906938	0.663641
0	C	0.5557	0.681237	0.795466
0	C	0.414149	0.623369	0.951955
0	C	0.383091	0.703237	0.0174524
0	H	0.389533	0.779538	0.986961
0	C	0.344738	0.683807	0.121133
0	H	0.31839	0.746185	0.172582
0	C	0.338836	0.585067	0.159972
0	H	0.309139	0.570437	0.241145
0	C	0.372085	0.504812	0.0951326
0	H	0.372472	0.426124	0.12665
0	C	0.409643	0.522843	0.990445
0	C	0.444909	0.434844	0.922875
0	H	0.499816	0.34994	0.962481
0	H	0.537499	0.430309	0.855951
0	C	0.290276	0.455835	0.891304
0	H	0.184052	0.480797	0.952841
0	C	0.424632	0.308152	0.772617
0	H	0.411035	0.369467	0.708083
0	H	0.399847	0.243367	0.756575
0	H	0.544071	0.27097	0.793315
0	C	0.0974926	0.603732	0.794055
0	H	0.0549683	0.546906	0.781742
0	H	0.101625	0.658643	0.726284
0	H	0.0220008	0.652929	0.859432
0	C	0.260653	0.876174	0.673089
0	H	0.194321	0.969938	0.676234
0	H	0.208828	0.842207	0.742976
0	C	0.236478	0.845401	0.579722
0	C	0.132148	0.800523	0.588726
0	H	0.0746029	0.78292	0.663308
0	C	0.100343	0.776532	0.503484
0	H	0.0158474	0.744376	0.51113
0	C	0.177439	0.796658	0.408353
0	C	0.286035	0.839512	0.397423
0	H	0.344273	0.853651	0.3224
0	C	0.313859	0.864011	0.483447
0	H	0.397269	0.897319	0.476564
0	C	0.0250982	0.755598	0.319183
0	H	0.0450365	0.676206	0.361266
0	H	0.0325377	0.750234	0.238479
0	H	0.910239	0.826242	0.349985
0	C	0.591066	0.24467	0.42154
0	C	0.598663	0.329935	0.475911
0	H	0.71062	0.336309	0.447668
0	H	0.600462	0.301772	0.557242
0	C	0.448133	0.444347	0.46434
0	H	0.449701	0.506277	0.506044
0	H	0.452335	0.476997	0.38443
0	C	0.289603	0.439349	0.503171
0	H	0.274151	0.425176	0.586838
0	H	0.186333	0.52128	0.486145
0	C	0.282947	0.345862	0.459423
0	H	0.275263	0.365003	0.377766
0	H	0.173176	0.339986	0.497665
0	C	0.433195	0.235454	0.475652
0	C	0.467798	0.124031	0.43964
0	H	0.399309	0.0849145	0.490125
0	H	0.4386	0.134941	0.362962
0	C	0.648896	0.0526444	0.438164
0	C	0.592004	0.278973	0.305844
0	C	0.734133	0.338161	0.150239
0	C	0.766536	0.258266	0.0843492
0	H	0.759667	0.182027	0.114436
0	C	0.806455	0.277789	0.980826
0	H	0.834484	0.215282	0.929054
0	C	0.812003	0.376793	0.942608
0	H	0.842451	0.3915	0.861527
0	C	0.777641	0.456934	0.00789474
0	H	0.777753	0.535513	0.976785
0	C	0.739061	0.438686	0.112444
0	C	0.704593	0.526108	0.180507
0	H	0.652228	0.61113	0.140815
0	H	0.610411	0.531689	0.246764
0	C	0.85962	0.502583	0.213177
0	H	0.966381	0.476795	0.151846
0	C	0.050676	0.353622	0.309732
0	H	0.12619	0.305048	0.243991
0	H	0.0465464	0.297998	0.376976
0	H	0.09317	0.410073	0.323123
0	C	0.730074	0.64872	0.333506
0	H	0.61026	0.688948	0.312813
0	H	0.758897	0.71114	0.350381
0	H	0.74151	0.587	0.397568
0	C	0.887104	0.0871856	0.428678
0	H	0.937065	0.122057	0.358531
0	H	0.955499	0.9935	0.425272
0	C	0.911009	0.118994	0.521655
0	C	0.836036	0.0996421	0.618479
0	H	0.754509	0.0645348	0.626537
0	C	0.864452	0.125501	0.703615
0	H	0.808634	0.110509	0.779176
0	C	0.970475	0.170683	0.691311
0	C	0.0449338	0.191795	0.595595
0	H	0.126585	0.226729	0.586624
0	C	0.0134531	0.165653	0.511436
0	H	0.0701328	0.182674	0.436103
0	C	0.127859	0.208524	0.778641
0	H	0.23984	0.1348	0.749577
0	H	0.120705	0.215704	0.858891
0	H	0.113719	0.285897	0.734552
0	N	0.431759	0.83664	0.676849
0	N	0.4419	0.647774	0.844231
0	H	0.384272	0.624643	0.80447
0	N	0.71651	0.124435	0.425565
0	N	0.704637	0.313755	0.257824
0	H	0.761916	0.336429	0.298278
0	O	0.715748	0.738738	0.517985
0	H	0.704112	0.814204	0.490221
0	O	0.425562	0.00931633	0.654561
0	O	0.64538	0.688924	0.840289
0	O	0.300362	0.360243	0.857405
0	O	0.263356	0.540395	0.808754
0	O	0.157914	0.777147	0.318232
0	O	0.431652	0.220679	0.582984
0	H	0.446571	0.144618	0.610898
0	O	0.726756	0.950348	0.447428
0	O	0.503747	0.270454	0.260376
0	O	0.88474	0.417486	0.295138
0	O	0.852905	0.596375	0.248249
0	O	0.990193	0.191851	0.780649
