#******************************************
#
# CIF file created by Zeo++
# Zeo++ is an open source package to
# analyze microporous materials
#
#*******************************************

_cell_length_a		19.6493(0)
_cell_length_b		11.3555(0)
_cell_length_c		27.3874(0)
_cell_angle_alpha		90(0)
_cell_angle_beta		95.7081(0)
_cell_angle_gamma		90(0)

_symmetry_space_group_name_H-M		'P1'
_symmetry_Int_Tables_number		1
_symmetry_cell_setting		Monoclinic

loop_
_symmetry_equiv_pos_as_xyz
'+x,+y,+z'

loop_
_atom_site_label
_atom_site_type_symbol
_atom_site_fract_x
_atom_site_fract_y
_atom_site_fract_z
0	C	0.120249	0.214509	0.126627
0	C	0.794623	0.702081	0.36696
0	C	0.755794	0.812831	0.866055
0	C	0.083075	0.324578	0.625374
0	H	0.148851	0.204313	0.162412
0	H	0.76771	0.692375	0.330619
0	H	0.726968	0.823387	0.830374
0	H	0.10998	0.333862	0.661727
0	C	0.152049	0.226207	0.0839222
0	C	0.759891	0.71166	0.408346
0	C	0.724169	0.800819	0.90883
0	C	0.117862	0.314883	0.584015
0	C	0.0481884	0.21678	0.123199
0	C	0.866646	0.706823	0.372727
0	C	0.82785	0.810515	0.869359
0	C	0.0110068	0.32014	0.619509
0	H	0.0224453	0.207352	0.156419
0	H	0.894661	0.698605	0.340562
0	H	0.853373	0.820186	0.836077
0	H	0.982953	0.328273	0.651649
0	C	0.00925503	0.229761	0.0781219
0	C	0.902515	0.721052	0.418869
0	C	0.866938	0.797187	0.914391
0	C	0.975197	0.306232	0.57333
0	H	0.953167	0.229586	0.0759484
0	H	0.958742	0.723138	0.422927
0	H	0.92293	0.79726	0.916445
0	H	0.918941	0.304328	0.569104
0	C	0.0412806	0.242724	0.0347247
0	C	0.867262	0.732314	0.46084
0	C	0.83506	0.784005	0.957835
0	C	0.010426	0.295009	0.531344
0	H	0.0103458	0.252453	0.999437
0	H	0.895341	0.74308	0.497157
0	H	0.865903	0.773932	0.993043
0	H	0.982199	0.284811	0.494643
0	C	0.112204	0.241986	0.0377859
0	C	0.796406	0.72832	0.455592
0	C	0.764132	0.784716	0.954883
0	C	0.0812708	0.298601	0.536758
0	C	0.144878	0.27246	0.94897
0	C	0.756549	0.755467	0.542613
0	C	0.731771	0.7536	0.0437281
0	C	0.120882	0.271712	0.449739
0	H	0.0926584	0.277275	0.931663
0	H	0.808106	0.761782	0.561472
0	H	0.78398	0.748589	0.0608905
0	H	0.0690035	0.265742	0.431033
0	C	0.158665	0.255202	0.999259
0	C	0.746835	0.738672	0.492216
0	C	0.71782	0.771133	0.993465
0	C	0.130815	0.288189	0.500142
0	C	0.200004	0.282133	0.920087
0	C	0.698603	0.763807	0.568765
0	C	0.67675	0.744015	0.0727032
0	C	0.178763	0.263195	0.423548
0	H	0.190114	0.294879	0.880664
0	H	0.705304	0.776822	0.608407
0	H	0.686669	0.731067	0.112085
0	H	0.171911	0.250278	0.383924
0	C	0.266945	0.273574	0.941715
0	C	0.632964	0.755196	0.544494
0	C	0.60976	0.752968	0.0511524
0	C	0.24447	0.27147	0.447757
0	H	0.308899	0.280322	0.918757
0	H	0.588859	0.761697	0.565294
0	H	0.567921	0.746438	0.0741726
0	H	0.288559	0.264842	0.426922
0	C	0.281474	0.255671	0.992792
0	C	0.622639	0.737074	0.493402
0	C	0.595046	0.770971	9.54597e-05
0	C	0.254985	0.289321	0.498873
0	H	0.334807	0.250243	0.00790579
0	H	0.571062	0.730577	0.475231
0	H	0.541634	0.776453	0.985031
0	H	0.306607	0.295534	0.517004
0	C	0.227526	0.246694	0.0214487
0	C	0.679545	0.728551	0.467585
0	C	0.648883	0.779802	0.971349
0	C	0.198151	0.297841	0.524759
0	C	0.227716	0.220593	0.0760519
0	C	0.683528	0.704351	0.413162
0	C	0.648551	0.806051	0.916762
0	C	0.194261	0.321932	0.579208
0	H	0.245151	0.126475	0.0819206
0	H	0.666029	0.611016	0.405482
0	H	0.630971	0.900132	0.910909
0	H	0.211779	0.415385	0.586779
0	C	0.274483	0.297629	0.110658
0	C	0.639754	0.786736	0.379142
0	C	0.602269	0.728115	0.88223
0	C	0.238273	0.240349	0.613429
0	H	0.268913	0.277554	0.149675
0	H	0.647026	0.772608	0.340045
0	H	0.607723	0.748496	0.843233
0	H	0.230819	0.254655	0.652472
0	H	0.328524	0.290287	0.103229
0	H	0.58497	0.781491	0.385047
0	H	0.548256	0.73444	0.889903
0	H	0.293103	0.245937	0.607617
0	O	0.25951	0.421561	0.100617
0	O	0.657592	0.906882	0.393577
0	O	0.61806	0.604447	0.892123
0	O	0.221081	0.119568	0.599307
0	C	0.229721	0.485492	0.135945
0	C	0.693473	0.972316	0.36197
0	C	0.648804	0.541202	0.856953
0	C	0.185812	0.0541827	0.631077
0	O	0.224319	0.44894	0.177294
0	O	0.702509	0.938352	0.320638
0	O	0.653478	0.577855	0.815463
0	O	0.176004	0.0878	0.672282
0	N	0.214999	0.597425	0.117347
0	N	0.708483	0.0804926	0.383592
0	N	0.664571	0.429966	0.875646
0	N	0.171353	0.945321	0.609644
0	H	0.221662	0.612842	0.0804267
0	H	0.697163	0.0919757	0.419962
0	H	0.65856	0.414541	0.912697
0	H	0.18365	0.932647	0.573578
0	C	0.164042	0.676619	0.138014
0	C	0.760362	0.163415	0.36626
0	C	0.715536	0.350623	0.854926
0	C	0.119397	0.862963	0.626699
0	C	0.195836	0.72264	0.189417
0	C	0.732642	0.20563	0.313338
0	C	0.683466	0.305706	0.803457
0	C	0.146576	0.819649	0.679588
0	O	0.160581	0.72995	0.223837
0	O	0.769422	0.216266	0.280078
0	O	0.718227	0.298821	0.768759
0	O	0.108907	0.808615	0.712285
0	C	0.152208	0.781565	0.102735
0	C	0.764794	0.270329	0.400966
0	C	0.726998	0.245087	0.889926
0	C	0.114627	0.756555	0.591674
0	H	0.191018	0.851421	0.111379
0	H	0.724004	0.335269	0.390125
0	H	0.688635	0.174995	0.880619
0	H	0.156079	0.692093	0.60211
0	H	0.163189	0.753182	0.064909
0	H	0.752527	0.241367	0.438413
0	H	0.715394	0.272793	0.927699
0	H	0.126907	0.786213	0.554218
0	C	0.0799518	0.835937	0.0994318
0	C	0.835197	0.33251	0.406829
0	C	0.799709	0.192042	0.893767
0	C	0.0449692	0.692807	0.586069
0	C	0.0667657	0.898928	0.147229
0	C	0.850913	0.392662	0.358986
0	C	0.814497	0.132024	0.84565
0	C	0.0308646	0.628684	0.633372
0	H	0.0680753	0.838289	0.178515
0	H	0.852271	0.329974	0.328619
0	H	0.813948	0.194507	0.81506
0	H	0.0302412	0.688593	0.664803
0	H	0.0164723	0.942312	0.143523
0	H	0.901503	0.435161	0.364122
0	H	0.865332	0.0906787	0.849915
0	H	0.980894	0.584029	0.628756
0	H	0.105304	0.967132	0.156469
0	H	0.813123	0.460399	0.347808
0	H	0.776752	0.0634663	0.835199
0	H	0.0694932	0.560982	0.643034
0	C	0.0716159	0.921591	0.0559686
0	C	0.836067	0.423347	0.448493
0	C	0.806532	0.102798	0.936097
0	C	0.0421393	0.606544	0.542897
0	H	0.0769609	0.877364	0.0207363
0	H	0.826902	0.382585	0.483781
0	H	0.800623	0.145004	0.971622
0	H	0.0510052	0.649377	0.507929
0	H	0.108718	0.99377	0.0603439
0	H	0.798158	0.4927	0.440252
0	H	0.769355	0.0312308	0.930274
0	H	0.0797093	0.535597	0.549604
0	H	0.0202019	0.961078	0.0520793
0	H	0.886605	0.465698	0.454687
0	H	0.858066	0.0640699	0.940015
0	H	0.991546	0.564137	0.536611
0	N	0.0269255	0.739908	0.0889246
0	N	0.889988	0.243367	0.423474
0	N	0.85191	0.287824	0.907609
0	N	0.988606	0.782319	0.573841
0	O	0.965649	0.770148	0.0825981
0	O	0.951298	0.280281	0.424528
0	O	0.913995	0.256913	0.909956
0	O	0.928651	0.745949	0.568274
0	C	0.0440353	0.612224	0.100462
0	C	0.877759	0.114003	0.412309
0	C	0.835273	0.414552	0.893432
0	C	0.00173369	0.913038	0.580915
0	C	0.0698306	0.557198	0.0546247
0	C	0.847297	0.0610625	0.457051
0	C	0.808475	0.473198	0.93825
0	C	0.0315862	0.960132	0.535136
0	H	0.0316113	0.566366	0.0226596
0	H	0.882723	0.0729046	0.490437
0	H	0.846142	0.465754	0.970636
0	H	0.995725	0.947213	0.502018
0	H	0.0801408	0.462803	0.0599866
0	H	0.837476	0.966371	0.452259
0	H	0.798227	0.566907	0.931574
0	H	0.0418416	0.0555147	0.538414
0	H	0.117074	0.597292	0.0439805
0	H	0.799033	0.102912	0.464626
0	H	0.76125	0.433114	0.948846
0	H	0.0798498	0.917849	0.527692
0	C	0.979705	0.547095	0.113083
0	C	0.945964	0.0533227	0.405651
0	C	0.900092	0.478591	0.880786
0	C	0.933948	0.975085	0.58707
0	H	0.938572	0.556006	0.0829288
0	H	0.983024	0.0695726	0.437778
0	H	0.941008	0.469337	0.910987
0	H	0.896712	0.96032	0.554866
0	H	0.959876	0.582032	0.146015
0	H	0.96911	0.0889437	0.37402
0	H	0.920078	0.441453	0.848226
0	H	0.910222	0.942568	0.61899
0	H	0.989812	0.452783	0.118272
0	H	0.939687	0.957802	0.40123
0	H	0.890536	0.572752	0.875028
0	H	0.941028	0.0709846	0.590899
0	C	0.097789	0.609866	0.145562
0	C	0.829399	0.101231	0.36433
0	C	0.782112	0.41662	0.847832
0	C	0.0504956	0.926141	0.628559
0	H	0.0748094	0.647066	0.177975
0	H	0.855558	0.136779	0.333097
0	H	0.805681	0.377328	0.816169
0	H	0.024701	0.893205	0.660406
0	H	0.108742	0.516773	0.156062
0	H	0.822386	0.00649906	0.355724
0	H	0.771467	0.50924	0.836786
0	H	0.0579048	0.0213551	0.636538
0	N	0.264877	0.751112	0.193966
0	N	0.662656	0.22872	0.306586
0	N	0.614161	0.278174	0.798909
0	N	0.2163	0.795718	0.686655
0	H	0.289183	0.759063	0.162208
0	H	0.634775	0.229621	0.337467
0	H	0.590054	0.268844	0.830685
0	H	0.24485	0.79618	0.65607
0	C	0.303031	0.796283	0.240445
0	C	0.624211	0.2636	0.25937
0	C	0.575534	0.234207	0.752364
0	C	0.254122	0.760251	0.734051
0	C	0.28669	0.715101	0.284397
0	C	0.642746	0.180964	0.216847
0	C	0.592766	0.315412	0.708645
0	C	0.235792	0.84287	0.776678
0	O	0.283762	0.755113	0.325877
0	O	0.640316	0.21986	0.174632
0	O	0.595437	0.276305	0.667003
0	O	0.237935	0.803209	0.818788
0	C	0.279343	0.9211	0.251722
0	C	0.642188	0.391398	0.245908
0	C	0.597352	0.108462	0.740827
0	C	0.234243	0.632888	0.747186
0	H	0.226086	0.935551	0.235457
0	H	0.695512	0.410707	0.261738
0	H	0.650292	0.0919131	0.757475
0	H	0.180488	0.616028	0.731498
0	H	0.276881	0.929872	0.292167
0	H	0.644728	0.396941	0.205351
0	H	0.599841	0.0996026	0.700414
0	H	0.231216	0.627142	0.787726
0	C	0.325599	0.0206307	0.235375
0	C	0.594372	0.487368	0.262447
0	C	0.54962	0.0105303	0.756858
0	C	0.280371	0.535064	0.730401
0	C	0.326246	0.0257787	0.179239
0	C	0.595741	0.498174	0.318145
0	C	0.549277	0.00536035	0.813016
0	C	0.277774	0.52338	0.674633
0	H	0.364185	0.0920281	0.170325
0	H	0.563605	0.570025	0.329481
0	H	0.511564	0.938677	0.821953
0	H	0.309745	0.451435	0.663066
0	H	0.276228	0.0479175	0.160815
0	H	0.648377	0.514441	0.334621
0	H	0.599736	0.983914	0.831233
0	H	0.224923	0.506222	0.658837
0	H	0.342928	0.942512	0.164423
0	H	0.580436	0.416523	0.336077
0	H	0.532559	0.0886165	0.828105
0	H	0.292298	0.604684	0.656125
0	C	0.295248	0.136221	0.25386
0	C	0.610514	0.606104	0.239727
0	C	0.578541	0.89393	0.738236
0	C	0.263823	0.417101	0.753559
0	H	0.294613	0.134934	0.293867
0	H	0.609676	0.601653	0.199712
0	H	0.579229	0.8959	0.698322
0	H	0.264766	0.421737	0.793583
0	H	0.243182	0.151788	0.237119
0	H	0.661783	0.636706	0.253938
0	H	0.630098	0.875796	0.755104
0	H	0.21241	0.386226	0.739605
0	H	0.32655	0.211738	0.245186
0	H	0.573909	0.675576	0.248395
0	H	0.545199	0.821243	0.746745
0	H	0.299982	0.346513	0.745022
0	N	0.397334	0.00895128	0.261799
0	N	0.520416	0.456349	0.243219
0	N	0.477974	0.0229737	0.730308
0	N	0.355321	0.564086	0.748543
0	O	0.44066	0.0778389	0.23688
0	O	0.478885	0.533139	0.239229
0	O	0.435052	0.953731	0.753368
0	O	0.396277	0.486492	0.750892
0	C	0.424416	0.883809	0.265672
0	C	0.497503	0.322567	0.230953
0	C	0.453072	0.150195	0.726795
0	C	0.378502	0.693828	0.76223
0	C	0.49782	0.874548	0.250799
0	C	0.427517	0.312991	0.243145
0	C	0.380014	0.162053	0.741956
0	C	0.450984	0.706461	0.750362
0	H	0.532181	0.933942	0.273314
0	H	0.386979	0.338566	0.216001
0	H	0.345434	0.103269	0.719382
0	H	0.489369	0.668015	0.777233
0	H	0.500136	0.906074	0.212876
0	H	0.414907	0.33471	0.279267
0	H	0.377957	0.13039	0.779918
0	H	0.461926	0.677152	0.714047
0	H	0.517986	0.784605	0.254552
0	H	0.420864	0.191426	0.242756
0	H	0.360849	0.252697	0.738283
0	H	0.46133	0.811335	0.750601
0	C	0.426289	0.852127	0.320531
0	C	0.502791	0.310833	0.176019
0	C	0.451469	0.182989	0.672078
0	C	0.373611	0.703992	0.817283
0	H	0.460853	0.911984	0.342911
0	H	0.468341	0.370308	0.153764
0	H	0.417126	0.123484	0.649602
0	H	0.407352	0.64335	0.839526
0	H	0.443143	0.761889	0.3277
0	H	0.486232	0.220114	0.165829
0	H	0.434624	0.273221	0.66512
0	H	0.390196	0.794479	0.828332
0	H	0.375558	0.862509	0.333647
0	H	0.554717	0.319163	0.164753
0	H	0.502297	0.173615	0.659142
0	H	0.321389	0.69602	0.828347
0	C	0.380067	0.79139	0.234372
0	C	0.547697	0.246847	0.26379
0	C	0.498455	0.241401	0.758235
0	C	0.330875	0.774744	0.730104
0	H	0.400527	0.702211	0.242831
0	H	0.529659	0.152346	0.256002
0	H	0.479289	0.331516	0.749819
0	H	0.351187	0.869008	0.738156
0	H	0.388272	0.807111	0.195277
0	H	0.536419	0.255283	0.302944
0	H	0.490001	0.22614	0.797359
0	H	0.342704	0.769485	0.690904
0	N	0.277528	0.595996	0.275189
0	N	0.657793	0.0654858	0.227999
0	N	0.602173	0.434624	0.718168
0	N	0.220447	0.958087	0.765619
0	H	0.272403	0.565292	0.23953
0	H	0.663648	0.0366246	0.26413
0	H	0.608438	0.46446	0.754017
0	H	0.215708	0.987394	0.729575
0	C	0.2611	0.508189	0.312894
0	C	0.670773	0.97547	0.190091
0	C	0.61868	0.522576	0.680616
0	C	0.207359	0.0481775	0.803527
0	C	0.207657	0.555576	0.347041
0	C	0.720528	0.0254862	0.153837
0	C	0.67198	0.475037	0.646409
0	C	0.157578	0.998454	0.839881
0	O	0.215861	0.540963	0.39157
0	O	0.710751	0.00774902	0.109734
0	O	0.664121	0.490789	0.60195
0	O	0.167678	0.0157876	0.883983
0	C	0.229381	0.400867	0.285598
0	C	0.70459	0.868704	0.216613
0	C	0.650472	0.630017	0.707854
0	C	0.173143	0.154314	0.77681
0	H	0.184674	0.424071	0.259885
0	H	0.749896	0.893536	0.241509
0	H	0.695078	0.6064	0.733583
0	H	0.12778	0.129121	0.752056
0	H	0.213202	0.33399	0.310832
0	H	0.720934	0.803646	0.190713
0	H	0.666814	0.696628	0.682597
0	H	0.156621	0.219453	0.802625
0	H	0.265676	0.359171	0.262819
0	H	0.669861	0.825821	0.240073
0	H	0.614329	0.672045	0.7306
0	H	0.207721	0.197086	0.7532
0	C	0.326612	0.477096	0.345432
0	C	0.602864	0.945384	0.160592
0	C	0.553072	0.553542	0.648112
0	C	0.275234	0.0789448	0.832854
0	H	0.348513	0.55537	0.364705
0	H	0.580557	0.0236204	0.14146
0	H	0.531448	0.475035	0.628835
0	H	0.298064	0.000924941	0.851911
0	H	0.365513	0.439377	0.324054
0	H	0.564387	0.913339	0.183982
0	H	0.514077	0.590771	0.669516
0	H	0.31362	0.111352	0.809341
0	H	0.315226	0.413612	0.373736
0	H	0.609982	0.879204	0.13248
0	H	0.564332	0.617042	0.619767
0	H	0.268009	0.144822	0.861081
0	N	0.149111	0.60699	0.323751
0	N	0.776658	0.0883254	0.175005
0	N	0.730124	0.422312	0.669687
0	N	0.101016	0.936482	0.818826
0	H	0.147495	0.631437	0.287355
0	H	0.780696	0.110155	0.211695
0	H	0.73133	0.396923	0.706
0	H	0.0965719	0.915348	0.782162
0	C	0.0884226	0.638904	0.349688
0	C	0.831441	0.133202	0.145926
0	C	0.790355	0.388775	0.64368
0	C	0.0460358	0.892383	0.848004
0	C	0.1075	0.729519	0.392095
0	C	0.803498	0.219402	0.103576
0	C	0.770841	0.298556	0.601224
0	C	0.0742334	0.806079	0.890336
0	O	0.0739734	0.73575	0.427376
0	O	0.834943	0.231409	0.0676792
0	O	0.804628	0.292211	0.56611
0	O	0.0435515	0.794813	0.926662
0	C	0.0359403	0.700008	0.312898
0	C	0.881902	0.204062	0.180766
0	C	0.842575	0.326735	0.680432
0	C	0.995259	0.821731	0.813328
0	H	0.014756	0.638949	0.284331
0	H	0.907031	0.147967	0.209787
0	H	0.863901	0.387006	0.709201
0	H	0.969984	0.877958	0.784439
0	H	0.0583323	0.774326	0.294338
0	H	0.856858	0.276314	0.198796
0	H	0.819628	0.252561	0.698807
0	H	0.019943	0.749028	0.795394
0	H	0.992507	0.733689	0.331204
0	H	0.922753	0.242726	0.161183
0	H	0.885791	0.292429	0.662092
0	H	0.954433	0.783518	0.833131
0	C	0.0594081	0.529106	0.372429
0	C	0.865415	0.0289116	0.122387
0	C	0.820172	0.498056	0.620929
0	C	0.0125047	0.996817	0.871658
0	H	0.098064	0.484802	0.398074
0	H	0.82853	0.981262	0.096481
0	H	0.781595	0.542692	0.595264
0	H	0.0494165	0.0442678	0.897581
0	H	0.0407451	0.464206	0.344861
0	H	0.886921	0.964958	0.149522
0	H	0.839069	0.562523	0.648583
0	H	0.991089	0.0611628	0.844655
0	H	0.0167319	0.551413	0.393791
0	H	0.906716	0.0586391	0.10104
0	H	0.862513	0.474411	0.599508
0	H	0.971025	0.967651	0.892973
0	N	0.161539	0.805722	0.386287
0	N	0.745439	0.285273	0.110782
0	N	0.716474	0.222997	0.606818
0	N	0.131799	0.739354	0.882563
0	H	0.192228	0.793893	0.35817
0	H	0.717336	0.264295	0.13939
0	H	0.6854	0.235641	0.634676
0	H	0.159591	0.760137	0.853767
0	C	0.184238	0.898468	0.422778
0	C	0.716237	0.379907	0.0775321
0	C	0.69365	0.130498	0.570226
0	C	0.161409	0.644724	0.915654
0	C	0.210769	0.839519	0.472864
0	C	0.674206	0.327734	0.0302922
0	C	0.666821	0.189695	0.520129
0	C	0.203782	0.697617	0.962558
0	O	0.197602	0.880674	0.512246
0	O	0.67847	0.36759	0.98923
0	O	0.680889	0.148232	0.481062
0	O	0.198929	0.65897	0.00378893
0	C	0.243585	0.967381	0.404416
0	C	0.665152	0.452216	0.104485
0	C	0.634509	0.0611785	0.588691
0	C	0.212188	0.572545	0.888389
0	H	0.28609	0.909976	0.396049
0	H	0.623262	0.398142	0.116103
0	H	0.591901	0.118336	0.597038
0	H	0.254	0.626816	0.87669
0	H	0.263906	0.0330986	0.431734
0	H	0.642618	0.522251	0.0801174
0	H	0.614247	0.995504	0.561367
0	H	0.234903	0.502138	0.912581
0	H	0.226686	0.016141	0.370765
0	H	0.690948	0.495393	0.137047
0	H	0.651543	0.0126055	0.622341
0	H	0.186011	0.529774	0.855898
0	C	0.124321	0.978817	0.431422
0	C	0.772801	0.458957	0.0616455
0	C	0.753668	0.0502649	0.56132
0	C	0.105047	0.565374	0.93171
0	H	0.082477	0.928863	0.445756
0	H	0.810085	0.407639	0.0425052
0	H	0.795041	0.100628	0.546475
0	H	0.067483	0.616446	0.950555
0	H	0.103149	0.0218103	0.397498
0	H	0.801472	0.502327	0.0929502
0	H	0.775279	0.00771423	0.595184
0	H	0.0766152	0.52142	0.900493
0	H	0.140067	0.0475924	0.458581
0	H	0.751629	0.526511	0.0357755
0	H	0.737706	0.981343	0.534299
0	H	0.126193	0.497799	0.957605
0	N	0.253373	0.742509	0.470749
0	N	0.625697	0.241902	0.0387042
0	N	0.623968	0.286148	0.522433
0	N	0.25256	0.782552	0.953836
0	H	0.255311	0.70007	0.437357
0	H	0.629498	0.202347	0.0727228
0	H	0.622344	0.329114	0.555707
0	H	0.249028	0.8212	0.919641
0	C	0.274304	0.665272	0.513507
0	C	0.591995	0.164355	0.99952
0	C	0.60338	0.362568	0.479432
0	C	0.286585	0.860908	0.99262
0	C	0.294037	0.73777	0.561348
0	C	0.564787	0.233227	0.95212
0	C	0.583968	0.289217	0.431873
0	C	0.313926	0.792762	0.0402153
0	O	0.268911	0.721481	0.599972
0	O	0.585851	0.224995	0.912023
0	O	0.608463	0.305996	0.393145
0	O	0.292439	0.801302	0.0802256
0	C	0.338345	0.597008	0.502535
0	C	0.529877	0.105696	0.0194128
0	C	0.539182	0.43117	0.489882
0	C	0.34863	0.918939	0.972431
0	H	0.379609	0.657365	0.49475
0	H	0.4945	0.172227	0.0314644
0	H	0.497855	0.37087	0.497742
0	H	0.38372	0.851829	0.960441
0	H	0.327052	0.539131	0.470472
0	H	0.545963	0.0469097	0.0501747
0	H	0.550257	0.489524	0.521797
0	H	0.332376	0.977227	0.941415
0	H	0.357364	0.541319	0.533436
0	H	0.500998	0.0519238	0.991256
0	H	0.520556	0.486184	0.458672
0	H	0.377676	0.972949	0.000296516
0	C	0.216123	0.581067	0.521975
0	C	0.643108	0.0720466	0.985342
0	C	0.661681	0.446099	0.470652
0	C	0.235699	0.953647	0.00665491
0	H	0.169035	0.627279	0.52896
0	H	0.68821	0.113495	0.971618
0	H	0.708687	0.399168	0.463621
0	H	0.190327	0.912564	0.0203044
0	H	0.23002	0.522143	0.553118
0	H	0.62015	0.0122827	0.956962
0	H	0.647824	0.504495	0.439325
0	H	0.258701	0.0140154	0.0347554
0	H	0.202485	0.525841	0.489195
0	H	0.66263	0.0176073	0.0172574
0	H	0.675646	0.501526	0.503269
0	H	0.216014	0.00756148	0.974491
0	O	0.347305	0.808681	0.556745
0	O	0.507486	0.295584	0.959167
0	O	0.530844	0.217571	0.436855
0	O	0.371148	0.730563	0.0333078
0	C	0.386229	0.874281	0.59866
0	C	0.46324	0.350233	0.917542
0	C	0.492264	0.151414	0.395041
0	C	0.415338	0.675617	0.0749215
0	C	0.421996	0.783266	0.63283
0	C	0.432611	0.250332	0.885072
0	C	0.456134	0.242053	0.360883
0	C	0.445825	0.775426	0.10748
0	H	0.45541	0.724593	0.614469
0	H	0.404911	0.186801	0.905855
0	H	0.422494	0.300392	0.379256
0	H	0.473518	0.839074	0.0867635
0	H	0.38473	0.728453	0.650125
0	H	0.472874	0.200723	0.868597
0	H	0.493069	0.297581	0.343618
0	H	0.405529	0.824388	0.124082
0	H	0.453726	0.829639	0.662821
0	H	0.397097	0.282912	0.854727
0	H	0.424463	0.196372	0.330809
0	H	0.481548	0.742793	0.137781
0	C	0.338292	0.951957	0.624129
0	C	0.504537	0.435119	0.889658
0	C	0.540811	0.0744143	0.36981
0	C	0.374109	0.590756	0.102816
0	H	0.312524	0.0171942	0.598834
0	H	0.532136	0.499323	0.914557
0	H	0.566875	0.00951167	0.395172
0	H	0.346307	0.526879	0.0779318
0	H	0.36708	0.000451096	0.654803
0	H	0.472573	0.484072	0.861794
0	H	0.512667	0.0253206	0.339107
0	H	0.406369	0.541206	0.130448
0	H	0.298146	0.901353	0.639789
0	H	0.543614	0.387983	0.871127
0	H	0.580984	0.125803	0.354489
0	H	0.335505	0.637788	0.121808
0	C	0.43543	0.943632	0.570218
0	C	0.411138	0.414253	0.945458
0	C	0.443052	0.0810482	0.423168
0	C	0.467385	0.61173	0.0469975
0	H	0.466137	0.885327	0.549305
0	H	0.38188	0.352458	0.965984
0	H	0.412111	0.138829	0.444119
0	H	0.496586	0.673527	0.0264247
0	H	0.470244	0.99603	0.595512
0	H	0.375616	0.465956	0.920737
0	H	0.408393	0.0289867	0.397709
0	H	0.50314	0.560279	0.0717877
0	H	0.407623	0.00405804	0.543922
0	H	0.436046	0.474866	0.973383
0	H	0.47079	0.0202795	0.449283
0	H	0.442801	0.550733	0.0191589
