#******************************************
#
# CIF file created by Zeo++
# Zeo++ is an open source package to
# analyze microporous materials
#
#*******************************************

_cell_length_a		12.6212(0)
_cell_length_b		37.3054(0)
_cell_length_c		11.1713(0)
_cell_angle_alpha		90(0)
_cell_angle_beta		90(0)
_cell_angle_gamma		90(0)

_symmetry_space_group_name_H-M		'P1'
_symmetry_Int_Tables_number		1
_symmetry_cell_setting		Monoclinic

loop_
_symmetry_equiv_pos_as_xyz
'+x,+y,+z'

loop_
_atom_site_label
_atom_site_type_symbol
_atom_site_fract_x
_atom_site_fract_y
_atom_site_fract_z
0	C	0.620887	0.136085	0.352417
0	C	0.386232	0.867046	0.83305
0	C	0.123057	0.366343	0.345709
0	C	0.885697	0.636593	0.840717
0	C	0.575949	0.104296	0.297093
0	C	0.431718	0.899257	0.78148
0	C	0.0775796	0.398247	0.291797
0	C	0.931248	0.604583	0.787717
0	C	0.634694	0.073486	0.291375
0	C	0.373446	0.930201	0.779091
0	C	0.135881	0.429185	0.287345
0	C	0.873052	0.573624	0.78421
0	H	0.601938	0.0492289	0.250802
0	H	0.406501	0.954763	0.741002
0	H	0.102672	0.453515	0.247778
0	H	0.906263	0.549214	0.745288
0	C	0.740859	0.0717074	0.338045
0	C	0.267505	0.931721	0.826568
0	C	0.242013	0.431062	0.334171
0	C	0.76695	0.571857	0.831139
0	C	0.800286	0.0400458	0.33153
0	C	0.208857	0.963594	0.824999
0	C	0.300862	0.462895	0.329485
0	C	0.708161	0.54001	0.827485
0	H	0.765414	0.0161831	0.290799
0	H	0.244123	0.987823	0.787217
0	H	0.265599	0.486867	0.289943
0	H	0.74343	0.515925	0.788734
0	C	0.903859	0.0387322	0.376535
0	C	0.105665	0.964666	0.87114
0	C	0.404367	0.464282	0.374769
0	C	0.604675	0.538734	0.872846
0	C	0.96613	0.0064385	0.370383
0	C	0.0437904	0.997078	0.86842
0	C	0.466302	0.496695	0.370072
0	C	0.542703	0.506333	0.868777
0	H	0.930022	0.98285	0.328945
0	H	0.0798045	0.0209243	0.828538
0	H	0.42988	0.520325	0.329426
0	H	0.578901	0.482639	0.828289
0	C	0.0668453	0.00480644	0.415709
0	C	0.943275	0.998431	0.914392
0	C	0.567054	0.498363	0.415414
0	C	0.442039	0.504763	0.914393
0	C	0.112567	0.0363372	0.471391
0	C	0.897868	0.966619	0.968497
0	C	0.612988	0.46671	0.470137
0	C	0.396403	0.536456	0.969086
0	C	0.0553855	0.0675319	0.47716
0	C	0.954621	0.935313	0.971045
0	C	0.556182	0.435419	0.474591
0	C	0.453158	0.567761	0.972752
0	H	0.0895808	0.0914279	0.518094
0	H	0.920644	0.911203	0.0107942
0	H	0.590562	0.411449	0.514825
0	H	0.418964	0.59178	0.0129312
0	C	0.94918	0.0700028	0.43049
0	C	0.0601243	0.932994	0.92214
0	C	0.450134	0.432884	0.427358
0	C	0.558966	0.570234	0.924815
0	C	0.889452	0.101724	0.436981
0	C	0.118937	0.901039	0.923481
0	C	0.391042	0.401012	0.432014
0	C	0.617972	0.602134	0.928349
0	H	0.924153	0.125541	0.477563
0	H	0.0840578	0.876881	0.961467
0	H	0.426042	0.377098	0.4715
0	H	0.582998	0.626133	0.967243
0	C	0.78581	0.103096	0.391715
0	C	0.221961	0.899871	0.876353
0	C	0.287517	0.399546	0.386342
0	C	0.72137	0.603501	0.882326
0	C	0.721913	0.135132	0.397207
0	C	0.285045	0.867644	0.877419
0	C	0.22417	0.367366	0.390346
0	C	0.784555	0.635716	0.885269
0	H	0.757452	0.15901	0.438319
0	H	0.249326	0.843413	0.915664
0	H	0.259949	0.343401	0.430638
0	H	0.748767	0.659772	0.924722
0	C	0.558934	0.169727	0.359285
0	C	0.448592	0.833515	0.840869
0	C	0.0613153	0.332633	0.353114
0	C	0.947481	0.670285	0.847822
0	C	0.539225	0.185835	0.470418
0	C	0.467716	0.818145	0.953374
0	C	0.0422585	0.316768	0.464859
0	C	0.966662	0.686075	0.95965
0	H	0.566607	0.172957	0.552324
0	H	0.439559	0.831559	0.0339853
0	H	0.0696499	0.329967	0.546219
0	H	0.939341	0.672799	0.0409068
0	C	0.484042	0.218289	0.477036
0	C	0.523031	0.785821	0.962897
0	C	0.987861	0.284205	0.472845
0	C	0.0210543	0.718628	0.967737
0	H	0.469763	0.229958	0.56488
0	H	0.536737	0.774741	0.0517177
0	H	0.974366	0.272707	0.561136
0	H	0.0347014	0.730068	0.0560957
0	C	0.447781	0.23544	0.37327
0	C	0.560153	0.768038	0.860684
0	C	0.951418	0.266679	0.36983
0	C	0.0572888	0.736217	0.86475
0	C	0.466508	0.218755	0.262217
0	C	0.542199	0.784005	0.748344
0	C	0.969457	0.28309	0.258191
0	C	0.0391689	0.719869	0.753049
0	H	0.437666	0.231255	0.180307
0	H	0.571768	0.771007	0.667645
0	H	0.940713	0.270222	0.17684
0	H	0.0678258	0.732786	0.671752
0	C	0.521155	0.186367	0.254847
0	C	0.487296	0.816306	0.738058
0	C	0.0233914	0.315604	0.249465
0	C	0.985256	0.68735	0.744203
0	H	0.534256	0.173761	0.16801
0	H	0.474739	0.828331	0.650227
0	H	0.0358336	0.327996	0.162129
0	H	0.972728	0.675002	0.656827
0	C	0.467612	0.103641	0.246611
0	C	0.540539	0.900058	0.732453
0	C	0.968987	0.398844	0.241983
0	C	0.0397825	0.603996	0.737741
0	C	0.378951	0.112193	0.31651
0	C	0.628045	0.891204	0.803819
0	C	0.880831	0.390003	0.312379
0	C	0.127889	0.613019	0.807948
0	H	0.38962	0.121316	0.408428
0	H	0.615849	0.881908	0.895278
0	H	0.892107	0.380732	0.40405
0	H	0.116574	0.62236	0.89952
0	C	0.277065	0.1086	0.269131
0	C	0.730623	0.894681	0.758437
0	C	0.778605	0.393451	0.26583
0	C	0.230099	0.609664	0.76131
0	H	0.209301	0.114756	0.326043
0	H	0.797479	0.888313	0.816464
0	H	0.711273	0.387074	0.323112
0	H	0.29742	0.616179	0.818446
0	C	0.261399	0.0967547	0.151238
0	C	0.748086	0.906654	0.640999
0	C	0.761985	0.405407	0.148231
0	C	0.246706	0.597653	0.643782
0	C	0.350857	0.0886708	0.0813703
0	C	0.659817	0.915087	0.569708
0	C	0.850887	0.413773	0.0778299
0	C	0.157858	0.58911	0.573558
0	H	0.341016	0.079326	0.98961
0	H	0.671196	0.924536	0.47826
0	H	0.840103	0.423181	0.986259
0	H	0.16868	0.579675	0.482005
0	C	0.452732	0.0920277	0.128149
0	C	0.557228	0.911936	0.614669
0	C	0.953112	0.410599	0.12383
0	C	0.0556514	0.592155	0.619707
0	H	0.521189	0.0854247	0.0727501
0	H	0.489625	0.91888	0.558425
0	H	0.0211621	0.417409	0.0680345
0	H	0.987607	0.585184	0.564135
0	C	0.149981	0.0904439	0.101156
0	C	0.860351	0.912821	0.593245
0	C	0.650176	0.41151	0.0989605
0	C	0.358521	0.59159	0.59448
0	C	0.124165	0.970241	0.409027
0	C	0.885461	0.0329101	0.908645
0	C	0.624472	0.532929	0.409271
0	C	0.384353	0.470252	0.908219
0	C	0.132989	0.952284	0.299156
0	C	0.875723	0.0506828	0.798565
0	C	0.633564	0.550973	0.299551
0	C	0.374714	0.45242	0.798226
0	H	0.105352	0.965082	0.217093
0	H	0.903005	0.0377859	0.716492
0	H	0.605714	0.538292	0.217371
0	H	0.402205	0.465247	0.716118
0	C	0.176451	0.917856	0.294034
0	C	0.831784	0.0850318	0.793236
0	C	0.677665	0.585313	0.294637
0	C	0.330567	0.418082	0.792913
0	H	0.181241	0.904599	0.207196
0	H	0.826186	0.0981397	0.706174
0	H	0.68272	0.598569	0.207828
0	H	0.325038	0.404978	0.705861
0	C	0.212252	0.900702	0.398065
0	C	0.796463	0.10227	0.897279
0	C	0.713812	0.602378	0.398696
0	C	0.294932	0.400853	0.896821
0	C	0.207644	0.919558	0.507005
0	C	0.801821	0.0835535	0.00651577
0	C	0.708698	0.58346	0.507485
0	C	0.300433	0.419602	0.00601284
0	H	0.237685	0.907235	0.588982
0	H	0.771993	0.0959259	0.0884724
0	H	0.738865	0.595667	0.589551
0	H	0.270509	0.40727	0.087969
0	C	0.164116	0.953848	0.512788
0	C	0.845814	0.0493305	0.0125515
0	C	0.664572	0.549244	0.513113
0	C	0.344621	0.453793	0.0120577
0	H	0.160315	0.967894	0.59843
0	H	0.850138	0.0353798	0.0983343
0	H	0.660472	0.535198	0.598728
0	H	0.349049	0.467712	0.0978967
0	C	0.256047	0.86243	0.397516
0	C	0.752337	0.140493	0.896094
0	C	0.758322	0.640584	0.398145
0	C	0.250517	0.362639	0.895713
0	C	0.220288	0.0355084	0.523614
0	C	0.790573	0.96736	0.0219299
0	C	0.720652	0.467467	0.522623
0	C	0.289076	0.535706	0.0225154
0	C	0.309573	0.0278273	0.453367
0	C	0.700838	0.974703	0.951956
0	C	0.810117	0.47483	0.452252
0	C	0.199056	0.528623	0.95271
0	H	0.29989	0.0208629	0.359123
0	H	0.710032	0.981467	0.857479
0	H	0.800654	0.48169	0.357908
0	H	0.207824	0.521955	0.858116
0	C	0.410637	0.0295136	0.503609
0	C	0.600091	0.972957	0.00291551
0	C	0.911131	0.472924	0.502487
0	C	0.0984333	0.530559	0.0039734
0	H	0.479213	0.0237749	0.446918
0	H	0.531146	0.978473	0.946531
0	H	0.979904	0.478392	0.445819
0	H	0.0291625	0.525345	0.947844
0	C	0.425271	0.0387374	0.624474
0	C	0.586167	0.964002	0.124136
0	C	0.925524	0.463773	0.623467
0	C	0.085037	0.539442	0.125342
0	C	0.335256	0.0453418	0.694718
0	C	0.676609	0.9578	0.194069
0	C	0.835385	0.457566	0.693928
0	C	0.175713	0.545355	0.195176
0	H	0.343534	0.0523008	0.788951
0	H	0.668952	0.951115	0.288599
0	H	0.843528	0.450744	0.788308
0	H	0.168359	0.551946	0.289846
0	C	0.233831	0.0437757	0.645129
0	C	0.777799	0.959426	0.143737
0	C	0.733995	0.459335	0.644274
0	C	0.276726	0.543566	0.144479
0	H	0.164712	0.0491843	0.700783
0	H	0.847284	0.954291	0.199081
0	H	0.664785	0.454118	0.699968
0	H	0.346417	0.548553	0.199664
0	C	0.537348	0.043994	0.674022
0	C	0.474212	0.958733	0.174024
0	C	0.0375587	0.458177	0.67266
0	C	0.973324	0.544999	0.175515
0	C	0.0672274	0.114493	0.162975
0	C	0.941758	0.888594	0.656553
0	C	0.568201	0.387358	0.161646
0	C	0.440571	0.61565	0.657441
0	H	0.0876978	0.142885	0.154919
0	H	0.921083	0.860238	0.647806
0	H	0.588936	0.358987	0.153552
0	H	0.419993	0.644038	0.649521
0	H	0.0590499	0.108102	0.258336
0	H	0.948386	0.894882	0.752137
0	H	0.560786	0.39375	0.257096
0	H	0.447873	0.609203	0.752857
0	H	0.988684	0.110749	0.122682
0	H	0.0210155	0.892283	0.618001
0	H	0.489269	0.39098	0.12223
0	H	0.519523	0.611993	0.618085
0	C	0.145863	0.0983664	0.965654
0	C	0.866611	0.905008	0.457827
0	C	0.645607	0.403488	0.963541
0	C	0.363122	0.599724	0.459166
0	H	0.0652563	0.094569	0.930991
0	H	0.947651	0.909015	0.424671
0	H	0.564942	0.407252	0.929064
0	H	0.443776	0.595972	0.424618
0	H	0.19797	0.0806353	0.914416
0	H	0.814853	0.922624	0.405701
0	H	0.697616	0.421184	0.911989
0	H	0.311043	0.5821	0.407429
0	H	0.169163	0.126036	0.946543
0	H	0.84418	0.877287	0.43813
0	H	0.668907	0.375803	0.944585
0	H	0.339857	0.627431	0.440472
0	C	0.123028	0.05072	0.12373
0	C	0.887239	0.952485	0.617069
0	C	0.622913	0.45121	0.121595
0	C	0.385566	0.551861	0.616886
0	H	0.121078	0.0446022	0.219743
0	H	0.887865	0.958463	0.713198
0	H	0.620874	0.457298	0.217641
0	H	0.387324	0.545691	0.712878
0	H	0.180846	0.0327711	0.0820195
0	H	0.830097	0.97054	0.574669
0	H	0.680746	0.469193	0.0800562
0	H	0.327743	0.533938	0.575036
0	H	0.0450253	0.0438951	0.0870829
0	H	0.965804	0.959308	0.582015
0	H	0.544905	0.458008	0.0849155
0	H	0.463649	0.545052	0.580432
0	C	0.198103	0.840341	0.494271
0	C	0.809899	0.162774	0.992683
0	C	0.700757	0.66283	0.494792
0	C	0.3078	0.340302	0.992382
0	H	0.221694	0.812136	0.491532
0	H	0.785659	0.190913	0.989783
0	H	0.724835	0.690995	0.491971
0	H	0.283462	0.312166	0.9894
0	H	0.112031	0.841546	0.482317
0	H	0.895981	0.161807	0.980479
0	H	0.61468	0.661822	0.482772
0	H	0.3939	0.341211	0.980368
0	H	0.215498	0.850095	0.584736
0	H	0.792872	0.153013	0.083209
0	H	0.717955	0.653091	0.585301
0	H	0.29062	0.350039	0.082901
0	C	0.240212	0.843782	0.275706
0	C	0.768484	0.158981	0.774015
0	C	0.742928	0.659311	0.276367
0	C	0.266473	0.34404	0.773784
0	H	0.283754	0.857405	0.204083
0	H	0.725164	0.145252	0.702417
0	H	0.786369	0.64566	0.204729
0	H	0.222994	0.357679	0.702124
0	H	0.156415	0.842859	0.250511
0	H	0.852363	0.159858	0.749095
0	H	0.659187	0.66041	0.251055
0	H	0.350296	0.343123	0.748691
0	H	0.268874	0.816095	0.278673
0	H	0.739871	0.186676	0.776417
0	H	0.771999	0.686958	0.279454
0	H	0.2379	0.316331	0.776505
0	C	0.375484	0.864139	0.425513
0	C	0.63282	0.138708	0.923627
0	C	0.877719	0.638722	0.426183
0	C	0.131002	0.364451	0.923209
0	H	0.390532	0.87543	0.514563
0	H	0.617482	0.127545	0.0127956
0	H	0.892659	0.627378	0.515173
0	H	0.115671	0.375686	0.0122929
0	H	0.417503	0.880939	0.360442
0	H	0.591166	0.121785	0.858597
0	H	0.91961	0.621914	0.361043
0	H	0.0893207	0.381299	0.858
0	H	0.411454	0.837473	0.423369
0	H	0.596666	0.16534	0.920885
0	H	0.914088	0.665336	0.424229
0	H	0.0947359	0.337827	0.920764
0	C	0.539401	0.0439984	0.811855
0	C	0.472635	0.958084	0.311849
0	C	0.0398632	0.457892	0.810485
0	C	0.972033	0.54562	0.31334
0	H	0.489553	0.065138	0.849858
0	H	0.522121	0.936617	0.348418
0	H	0.990037	0.436679	0.848087
0	H	0.0220469	0.566946	0.349906
0	H	0.620219	0.0486456	0.845097
0	H	0.391819	0.953511	0.34521
0	H	0.120737	0.453147	0.8434
0	H	0.891375	0.550389	0.34686
0	H	0.513226	0.0182109	0.84881
0	H	0.499511	0.983624	0.350082
0	H	0.0138898	0.48359	0.848131
0	H	0.998358	0.520012	0.35146
0	C	0.612314	0.0142441	0.629674
0	C	0.399769	0.988893	0.131643
0	C	0.112897	0.4879	0.628816
0	C	0.898187	0.515023	0.133207
0	H	0.584239	0.987539	0.655591
0	H	0.428432	0.0153819	0.159165
0	H	0.0848995	0.514598	0.654801
0	H	0.92655	0.488459	0.160197
0	H	0.691867	0.017665	0.667706
0	H	0.320199	0.985451	0.169612
0	H	0.192321	0.484401	0.667113
0	H	0.818824	0.518568	0.171616
0	H	0.62133	0.0145156	0.532168
0	H	0.390688	0.989189	0.0341577
0	H	0.12225	0.487684	0.531351
0	H	0.888624	0.514846	0.0357728
0	C	0.575593	0.0807451	0.627676
0	C	0.434848	0.922301	0.125962
0	C	0.0751036	0.421418	0.625518
0	C	0.934777	0.581575	0.127784
0	H	0.58113	0.0811513	0.529647
0	H	0.42898	0.922296	0.0279369
0	H	0.0805671	0.42112	0.527477
0	H	0.92882	0.581697	0.0297748
0	H	0.654317	0.0872431	0.662751
0	H	0.356097	0.915887	0.161173
0	H	0.15374	0.414684	0.660362
0	H	0.856207	0.588198	0.163092
0	H	0.521483	0.102243	0.654091
0	H	0.488516	0.900546	0.151203
0	H	0.0206204	0.399993	0.651669
0	H	0.989013	0.603159	0.153157
0	C	0.388462	0.27129	0.37588
0	C	0.619428	0.732222	0.867001
0	C	0.892608	0.230736	0.374136
0	C	0.115918	0.772186	0.869416
0	C	0.381435	0.287404	0.502728
0	C	0.625182	0.717109	0.995365
0	C	0.886768	0.215068	0.501699
0	C	0.121596	0.78769	0.997255
0	H	0.460037	0.292516	0.540443
0	H	0.54616	0.712471	0.0326838
0	H	0.965769	0.210221	0.538779
0	H	0.0425117	0.792366	0.0343898
0	H	0.338524	0.269746	0.564201
0	H	0.667886	0.73519	0.0556693
0	H	0.8442	0.232895	0.562955
0	H	0.164313	0.769803	0.0582025
0	H	0.338386	0.313094	0.500822
0	H	0.667679	0.691346	0.996281
0	H	0.844091	0.189327	0.501443
0	H	0.16388	0.813459	0.997555
0	C	0.275141	0.265139	0.328961
0	C	0.733205	0.737977	0.820975
0	C	0.778895	0.23657	0.327899
0	C	0.229629	0.766464	0.823075
0	H	0.228131	0.289877	0.331169
0	H	0.779783	0.713166	0.82497
0	H	0.732313	0.211747	0.330752
0	H	0.276252	0.791269	0.82673
0	H	0.232747	0.245277	0.383036
0	H	0.775464	0.758001	0.874536
0	H	0.736424	0.256435	0.381927
0	H	0.27207	0.746443	0.876485
0	H	0.274441	0.255574	0.2364
0	H	0.734776	0.747108	0.727935
0	H	0.777618	0.246007	0.23518
0	H	0.230911	0.757299	0.730046
0	C	0.447504	0.298272	0.295164
0	C	0.561082	0.704622	0.78803
0	C	0.951564	0.2036	0.293933
0	C	0.0567634	0.799352	0.789535
0	H	0.447206	0.289955	0.201203
0	H	0.562109	0.712216	0.693391
0	H	0.950998	0.211691	0.199745
0	H	0.0573907	0.791348	0.695255
0	H	0.530413	0.301152	0.322553
0	H	0.477987	0.701897	0.814887
0	H	0.0345686	0.200844	0.321096
0	H	0.973756	0.802032	0.816763
0	H	0.410841	0.324891	0.298718
0	H	0.597774	0.678053	0.794229
0	H	0.915117	0.176962	0.298449
0	H	0.0930067	0.826012	0.794246
