#******************************************
#
# CIF file created by Zeo++
# Zeo++ is an open source package to
# analyze microporous materials
#
#*******************************************

_cell_length_a		11.5214(0)
_cell_length_b		11.5219(0)
_cell_length_c		10.0332(0)
_cell_angle_alpha		90(0)
_cell_angle_beta		90(0)
_cell_angle_gamma		120.042(0)

_symmetry_space_group_name_H-M		'P1'
_symmetry_Int_Tables_number		1
_symmetry_cell_setting		Monoclinic

loop_
_symmetry_equiv_pos_as_xyz
'+x,+y,+z'

loop_
_atom_site_label
_atom_site_type_symbol
_atom_site_fract_x
_atom_site_fract_y
_atom_site_fract_z
0	O	0.448012	0.0750893	0.649096
0	O	0.927056	0.373706	0.648967
0	O	0.628643	0.554394	0.64921
0	O	0.554062	0.926002	0.134012
0	O	0.0767052	0.62958	0.133654
0	O	0.373259	0.448055	0.133759
0	O	0.554546	0.927022	0.389588
0	O	0.0754747	0.628383	0.389211
0	O	0.373822	0.447595	0.389174
0	O	0.448429	0.0760058	0.904616
0	O	0.925877	0.372629	0.904499
0	O	0.629366	0.554125	0.904673
0	C	0.344301	0.957986	0.706587
0	C	0.0440518	0.386967	0.706454
0	C	0.614997	0.657903	0.706624
0	C	0.658084	0.0434844	0.190486
0	C	0.959189	0.615881	0.190152
0	C	0.387024	0.344288	0.190181
0	C	0.658263	0.0441096	0.332014
0	C	0.958468	0.615081	0.331699
0	C	0.387516	0.344144	0.331707
0	C	0.344423	0.958537	0.848136
0	C	0.0433207	0.386186	0.847988
0	C	0.615512	0.657825	0.848179
0	C	0.248371	0.850317	0.634519
0	C	0.151843	0.399092	0.634379
0	C	0.603115	0.753667	0.634587
0	C	0.754038	0.150265	0.117463
0	C	0.852339	0.604844	0.11727
0	C	0.397931	0.248406	0.117218
0	C	0.754278	0.151841	0.404009
0	C	0.850658	0.602948	0.403707
0	C	0.399364	0.248292	0.403742
0	C	0.248378	0.851671	0.920955
0	C	0.150194	0.397198	0.920883
0	C	0.604521	0.75367	0.921004
0	H	0.24755	0.850912	0.525903
0	H	0.151392	0.397953	0.52576
0	H	0.604423	0.75446	0.525886
0	H	0.755102	0.147877	0.00884934
0	H	0.854649	0.608321	0.00860211
0	H	0.394577	0.24729	0.00861275
0	H	0.7552	0.151349	0.512613
0	H	0.851097	0.604088	0.512382
0	H	0.398074	0.247454	0.512376
0	H	0.247169	0.853949	0.029666
0	H	0.147903	0.393737	0.029547
0	H	0.60786	0.754821	0.0296987
0	C	0.150953	0.74083	0.708642
0	C	0.26131	0.411293	0.708525
0	C	0.591104	0.851021	0.708649
0	C	0.85142	0.260637	0.190592
0	C	0.741914	0.591471	0.190413
0	C	0.410832	0.151065	0.190401
0	C	0.851649	0.261267	0.329748
0	C	0.741206	0.590759	0.329582
0	C	0.411301	0.150915	0.329571
0	C	0.151054	0.741335	0.847801
0	C	0.26062	0.410571	0.847689
0	C	0.591559	0.850912	0.847825
0	H	0.0731581	0.654636	0.654102
0	H	0.347692	0.420149	0.654033
0	H	0.582738	0.928848	0.654176
0	H	0.928746	0.346798	0.135265
0	H	0.65569	0.582512	0.135176
0	H	0.419498	0.0736426	0.135199
0	H	0.929506	0.34752	0.384181
0	H	0.654834	0.581937	0.384058
0	H	0.419598	0.0730438	0.383993
0	H	0.0736537	0.655093	0.903002
0	H	0.346812	0.419532	0.902955
0	H	0.582829	0.928331	0.903007
0	P	0.534491	0.176805	0.776451
0	P	0.82535	0.358435	0.77632
0	P	0.643845	0.467899	0.776545
0	P	0.468021	0.825274	0.26223
0	P	0.177202	0.643728	0.26184
0	P	0.358616	0.534139	0.261894
0	N	0.690801	0.206156	0.776138
0	N	0.795954	0.485321	0.776393
0	N	0.516984	0.311367	0.776582
0	N	0.311741	0.795985	0.262269
0	N	0.20653	0.516761	0.261656
0	N	0.485458	0.690637	0.26225
