#******************************************
#
# CIF file created by Zeo++
# Zeo++ is an open source package to
# analyze microporous materials
#
#*******************************************

_cell_length_a		23.832(0)
_cell_length_b		23.9445(0)
_cell_length_c		9.32168(0)
_cell_angle_alpha		90(0)
_cell_angle_beta		90(0)
_cell_angle_gamma		120.794(0)

_symmetry_space_group_name_H-M		'P1'
_symmetry_Int_Tables_number		1
_symmetry_cell_setting		Monoclinic

loop_
_symmetry_equiv_pos_as_xyz
'+x,+y,+z'

loop_
_atom_site_label
_atom_site_type_symbol
_atom_site_fract_x
_atom_site_fract_y
_atom_site_fract_z
0	P	0.594445	0.0436435	0.0164091
0	P	0.961724	0.549561	0.768631
0	P	0.455773	0.407153	0.393949
0	P	0.414992	0.95663	0.560833
0	P	0.0502829	0.45291	0.226483
0	P	0.55721	0.593786	0.893839
0	O	0.565825	0.00994571	0.850118
0	O	0.997836	0.549925	0.607001
0	O	0.454766	0.439901	0.229511
0	O	0.44832	0.993008	0.397987
0	O	0.0173726	0.451747	0.0607178
0	O	0.558081	0.560605	0.729789
0	O	0.67677	0.0713683	0.994357
0	O	0.938111	0.605305	0.730083
0	O	0.399975	0.325911	0.361463
0	O	0.333427	0.929035	0.52747
0	O	0.0744711	0.396989	0.196864
0	O	0.613185	0.674904	0.86086
0	N	0.601136	0.118604	0.0271258
0	N	0.883734	0.481303	0.775759
0	N	0.524085	0.399612	0.407349
0	N	0.408035	0.881139	0.568383
0	N	0.128133	0.520336	0.241302
0	N	0.488977	0.601513	0.906695
0	C	0.605219	0.0383058	0.732191
0	C	0.972391	0.557447	0.480505
0	C	0.44497	0.403886	0.106874
0	C	0.412965	0.966254	0.274399
0	C	0.044348	0.442125	0.939232
0	C	0.568006	0.596541	0.606926
0	C	0.584378	0.0710171	0.63761
0	C	0.942896	0.501841	0.388728
0	C	0.500189	0.428193	0.0137558
0	C	0.438175	0.93689	0.181423
0	C	0.0770159	0.497044	0.846312
0	C	0.512783	0.572534	0.513885
0	H	0.542357	0.0748604	0.668564
0	H	0.940531	0.457464	0.425703
0	H	0.545978	0.470329	0.0489755
0	H	0.480929	0.935193	0.216729
0	H	0.0816359	0.542765	0.880654
0	H	0.466935	0.530354	0.548851
0	C	0.618303	0.0971516	0.513203
0	C	0.917863	0.505587	0.259478
0	C	0.493968	0.39748	0.885949
0	C	0.407461	0.911116	0.0537485
0	C	0.101878	0.49077	0.719115
0	C	0.518956	0.603574	0.386544
0	H	0.602774	0.121314	0.437097
0	H	0.895993	0.464132	0.18603
0	H	0.53491	0.415754	0.81099
0	H	0.426184	0.889241	0.979309
0	H	0.125702	0.531492	0.64411
0	H	0.477946	0.585555	0.311814
0	C	0.675402	0.0939281	0.481594
0	C	0.919103	0.563863	0.218174
0	C	0.433665	0.340147	0.848449
0	C	0.349405	0.911561	0.0159473
0	C	0.097713	0.430658	0.682178
0	C	0.579301	0.661006	0.349373
0	C	0.712306	0.123942	0.354505
0	C	0.88865	0.566003	0.0877081
0	C	0.428569	0.30624	0.718227
0	C	0.315329	0.881221	0.886207
0	C	0.126787	0.425425	0.55241
0	C	0.584268	0.695653	0.22039
0	H	0.695448	0.148148	0.281597
0	H	0.863397	0.522082	0.0218408
0	H	0.471418	0.32467	0.648569
0	H	0.334207	0.857562	0.817263
0	H	0.152146	0.467949	0.482358
0	H	0.541413	0.677448	0.150763
0	C	0.768241	0.123025	0.325149
0	C	0.889912	0.621702	0.0470343
0	C	0.371225	0.250827	0.682225
0	C	0.259351	0.880752	0.849756
0	C	0.123775	0.368335	0.516968
0	C	0.641506	0.751392	0.185471
0	H	0.79616	0.145841	0.227934
0	H	0.868029	0.623681	0.945754
0	H	0.367161	0.225709	0.581573
0	H	0.233986	0.858445	0.749531
0	H	0.145062	0.36412	0.416844
0	H	0.645441	0.777252	0.0861305
0	C	0.790287	0.0923584	0.42205
0	C	0.919724	0.677388	0.137612
0	C	0.316711	0.225527	0.776779
0	C	0.2336	0.909159	0.943376
0	C	0.0929631	0.314108	0.611535
0	C	0.69624	0.775965	0.279274
0	H	0.83503	0.0925255	0.397424
0	H	0.919007	0.720704	0.105204
0	H	0.272093	0.180738	0.747704
0	H	0.18847	0.907268	0.913903
0	H	0.0920279	0.269564	0.58274
0	H	0.740871	0.820889	0.250934
0	C	0.755805	0.0632057	0.544772
0	C	0.948225	0.676198	0.2647
0	C	0.320538	0.256772	0.903089
0	C	0.2649	0.937934	0.0693123
0	C	0.0653251	0.318116	0.737388
0	C	0.692653	0.743803	0.40399
0	H	0.773387	0.040337	0.619119
0	H	0.97013	0.718824	0.334422
0	H	0.278803	0.236641	0.975814
0	H	0.244426	0.958837	0.141397
0	H	0.0426487	0.276551	0.809998
0	H	0.734666	0.76326	0.475894
0	C	0.696647	0.0623391	0.577899
0	C	0.949558	0.619527	0.308515
0	C	0.378956	0.315848	0.942098
0	C	0.324482	0.940897	0.108907
0	C	0.065782	0.376295	0.775874
0	C	0.634145	0.684741	0.442525
0	C	0.659356	0.0323791	0.70589
0	C	0.978603	0.616435	0.44162
0	C	0.384558	0.350033	0.0733869
0	C	0.358467	0.970575	0.240413
0	C	0.0366678	0.381892	0.906467
0	C	0.628555	0.650234	0.573419
0	C	0.679556	0.000848171	0.813332
0	C	0.0105964	0.672361	0.540226
0	C	0.329861	0.327097	0.175857
0	C	0.334569	0.000495442	0.343267
0	C	0.00324889	0.327503	0.00857481
0	C	0.683215	0.673073	0.675941
0	C	0.687542	0.0215975	0.955073
0	C	0.989514	0.664549	0.681745
0	C	0.339777	0.316199	0.317444
0	C	0.323378	0.978901	0.484476
0	C	0.0232645	0.337166	0.151007
0	C	0.673357	0.684355	0.817318
0	C	0.712472	0.998788	0.0644562
0	C	0.0137441	0.717065	0.781133
0	C	0.288961	0.289171	0.421906
0	C	0.295268	0.000603248	0.589092
0	C	0.99811	0.286281	0.254746
0	C	0.724185	0.711548	0.921687
0	H	0.719464	0.0193139	0.172004
0	H	0.99341	0.70745	0.889273
0	H	0.300348	0.280313	0.529864
0	H	0.286001	0.979606	0.696482
0	H	0.0175206	0.297571	0.363714
0	H	0.712851	0.720786	0.0292477
0	C	0.727693	0.952437	0.030482
0	C	0.0608064	0.777899	0.736934
0	C	0.227591	0.274648	0.382782
0	C	0.280294	0.0466734	0.55107
0	C	0.951455	0.224859	0.213354
0	C	0.785529	0.725853	0.882737
0	H	0.747857	0.934625	0.111108
0	H	0.0794993	0.819206	0.809809
0	H	0.18744	0.252952	0.459432
0	H	0.258008	0.0637864	0.628105
0	H	0.932245	0.184639	0.289267
0	H	0.825729	0.747685	0.959279
0	C	0.716315	0.925736	0.888859
0	C	0.0868423	0.788287	0.594707
0	C	0.215199	0.28858	0.240826
0	C	0.294532	0.0739945	0.409831
0	C	0.92635	0.212488	0.0700679
0	C	0.797885	0.711587	0.741051
0	C	0.728405	0.874404	0.856015
0	C	0.137411	0.851538	0.550087
0	C	0.151733	0.276457	0.202792
0	C	0.282154	0.124768	0.373028
0	C	0.876127	0.148689	0.0280701
0	C	0.861309	0.723543	0.703215
0	H	0.748534	0.857803	0.939257
0	H	0.1545	0.891852	0.625315
0	H	0.112767	0.254576	0.2821
0	H	0.260021	0.140658	0.453124
0	H	0.859251	0.10916	0.105349
0	H	0.900231	0.745325	0.782704
0	C	0.714318	0.846209	0.722691
0	C	0.163951	0.861207	0.415438
0	C	0.140352	0.292528	0.0690614
0	C	0.298324	0.153161	0.239994
0	C	0.849453	0.137392	0.893338
0	C	0.872698	0.707343	0.569654
0	H	0.722452	0.806357	0.697743
0	H	0.202503	0.909296	0.380778
0	H	0.092286	0.284076	0.0399882
0	H	0.28982	0.192463	0.212007
0	H	0.810764	0.0889523	0.861081
0	H	0.920772	0.71569	0.540751
0	C	0.687526	0.868035	0.615093
0	C	0.142117	0.807862	0.318945
0	C	0.191828	0.321609	0.966773
0	C	0.327688	0.132135	0.13677
0	C	0.871436	0.189536	0.79345
0	C	0.821175	0.678216	0.467274
0	H	0.675305	0.843936	0.510697
0	H	0.165396	0.816366	0.21379
0	H	0.182098	0.335442	0.862137
0	H	0.341274	0.156285	0.032425
0	H	0.848079	0.179876	0.688218
0	H	0.830936	0.664274	0.36277
0	C	0.676378	0.917819	0.643089
0	C	0.0933607	0.746886	0.358524
0	C	0.252916	0.332905	0.999836
0	C	0.339452	0.0831318	0.168825
0	C	0.920551	0.250788	0.829841
0	C	0.760115	0.666994	0.500242
0	H	0.654828	0.933875	0.561197
0	H	0.0773699	0.705787	0.285113
0	H	0.29266	0.356064	0.921823
0	H	0.362964	0.0678051	0.0901547
0	H	0.937115	0.290993	0.753694
0	H	0.720325	0.643727	0.422161
0	C	0.691072	0.948774	0.780557
0	C	0.0631001	0.735372	0.496747
0	C	0.266365	0.315958	0.137632
0	C	0.322629	0.0519033	0.306105
0	C	0.950563	0.264039	0.968507
0	C	0.746684	0.68408	0.637868
0	C	0.643976	0.174553	0.932979
0	C	0.833932	0.4711	0.665767
0	C	0.536558	0.35981	0.303754
0	C	0.367191	0.828543	0.46437
0	C	0.180805	0.532667	0.13756
0	C	0.476409	0.640984	0.802312
0	H	0.61543	0.195056	0.884641
0	H	0.81432	0.423138	0.611248
0	H	0.58572	0.389324	0.253127
0	H	0.396347	0.809823	0.411387
0	H	0.20143	0.581591	0.0869215
0	H	0.427147	0.611379	0.752247
0	H	0.662187	0.158654	0.840393
0	H	0.855664	0.507917	0.577883
0	H	0.501098	0.342862	0.212742
0	H	0.349798	0.847086	0.375206
0	H	0.161424	0.497311	0.0466404
0	H	0.511646	0.657529	0.710931
0	C	0.70142	0.226006	0.0177118
0	C	0.778972	0.475897	0.734151
0	C	0.530835	0.301186	0.379361
0	C	0.308702	0.774201	0.540974
0	C	0.233895	0.526906	0.212722
0	C	0.482396	0.699889	0.877032
0	C	0.75603	0.219662	0.0410304
0	C	0.785415	0.537046	0.752175
0	C	0.468994	0.245919	0.400757
0	C	0.253251	0.77913	0.564038
0	C	0.226285	0.465358	0.232881
0	C	0.544344	0.755055	0.897986
0	H	0.756703	0.177368	0.998546
0	H	0.830798	0.58097	0.720639
0	H	0.425274	0.245907	0.364793
0	H	0.252799	0.822348	0.52754
0	H	0.18153	0.421879	0.196745
0	H	0.587941	0.754907	0.86171
0	C	0.809261	0.267156	0.118774
0	C	0.733807	0.541633	0.809785
0	C	0.463423	0.191148	0.467801
0	C	0.198877	0.728938	0.633599
0	C	0.275776	0.459789	0.299052
0	C	0.550179	0.809918	0.965188
0	H	0.851914	0.262442	0.135571
0	H	0.738624	0.58911	0.822765
0	H	0.415381	0.148118	0.483804
0	H	0.15573	0.732691	0.651164
0	H	0.270053	0.411992	0.313693
0	H	0.598321	0.852875	0.980496
0	C	0.808122	0.320832	0.174235
0	C	0.675778	0.485464	0.849536
0	C	0.519318	0.191173	0.513636
0	C	0.199461	0.673708	0.680045
0	C	0.332852	0.515388	0.345565
0	C	0.494478	0.810037	0.0117521
0	H	0.84946	0.35721	0.236386
0	H	0.635884	0.489557	0.894558
0	H	0.514469	0.148311	0.566202
0	H	0.15694	0.635031	0.734897
0	H	0.371	0.510546	0.397844
0	H	0.499541	0.852737	0.0655737
0	C	0.753741	0.327262	0.150736
0	C	0.669394	0.424499	0.831897
0	C	0.580974	0.246256	0.49234
0	C	0.254651	0.668682	0.656627
0	C	0.340418	0.576733	0.325595
0	C	0.432686	0.755155	0.990228
0	H	0.752727	0.369005	0.193615
0	H	0.624314	0.380723	0.86277
0	H	0.624525	0.246452	0.527995
0	H	0.255263	0.625793	0.692647
0	H	0.384723	0.620081	0.361712
0	H	0.389276	0.755202	0.0260659
0	C	0.700417	0.279994	0.0725529
0	C	0.720927	0.419585	0.774572
0	C	0.58685	0.301307	0.42553
0	C	0.309333	0.71887	0.587387
0	C	0.291021	0.582623	0.259443
0	C	0.426507	0.70007	0.923115
0	H	0.658104	0.285108	0.0547145
0	H	0.715926	0.372091	0.761423
0	H	0.634905	0.344188	0.409659
0	H	0.352388	0.715019	0.570041
0	H	0.296961	0.630438	0.244542
0	H	0.378339	0.657356	0.907005
0	C	0.552266	0.124689	0.114396
0	C	0.878233	0.42143	0.838627
0	C	0.582517	0.453397	0.479875
0	C	0.461677	0.876897	0.639587
0	C	0.13499	0.578471	0.316093
0	C	0.430531	0.54755	0.978836
0	H	0.579212	0.166445	0.190139
0	H	0.835669	0.400496	0.914279
0	H	0.601034	0.430597	0.557029
0	H	0.438494	0.835495	0.717556
0	H	0.177693	0.59668	0.390842
0	H	0.411946	0.570185	0.0561165
0	H	0.523165	0.0811205	0.184255
0	H	0.921429	0.433174	0.907568
0	H	0.569291	0.483425	0.548186
0	H	0.493142	0.920939	0.706787
0	H	0.0920779	0.565212	0.386999
0	H	0.443761	0.517479	0.046908
0	C	0.506751	0.135267	0.020417
0	C	0.868692	0.371076	0.727865
0	C	0.636083	0.496977	0.376089
0	C	0.503896	0.866482	0.534516
0	C	0.145033	0.632027	0.214133
0	C	0.377032	0.50408	0.874842
0	C	0.509862	0.195386	0.0229568
0	C	0.807414	0.313939	0.715559
0	C	0.693442	0.49415	0.370741
0	C	0.502305	0.807073	0.53494
0	C	0.206697	0.688865	0.205507
0	C	0.319751	0.507042	0.869082
0	H	0.542778	0.233283	0.0970544
0	H	0.768012	0.305298	0.788581
0	H	0.699908	0.462402	0.443941
0	H	0.472803	0.769879	0.613934
0	H	0.246201	0.695086	0.275236
0	H	0.31326	0.538782	0.942322
0	C	0.470311	0.206629	0.931418
0	C	0.796912	0.26778	0.611048
0	C	0.742603	0.532386	0.272557
0	C	0.539001	0.795617	0.435158
0	C	0.217458	0.737904	0.108689
0	C	0.270708	0.468951	0.770538
0	H	0.472684	0.25332	0.933124
0	H	0.749383	0.223392	0.602041
0	H	0.787109	0.530102	0.268575
0	H	0.537814	0.749497	0.435751
0	H	0.265396	0.781956	0.101771
0	H	0.22628	0.471353	0.766109
0	C	0.427481	0.157864	0.837208
0	C	0.847502	0.278334	0.518142
0	C	0.734841	0.573794	0.179666
0	C	0.577451	0.843415	0.334494
0	C	0.16657	0.730582	0.0208547
0	C	0.278456	0.427484	0.677776
0	H	0.397561	0.167035	0.763727
0	H	0.838866	0.242695	0.435231
0	H	0.772773	0.602824	0.101618
0	H	0.605069	0.833892	0.255092
0	H	0.175189	0.768357	0.94383
0	H	0.240555	0.3985	0.599572
0	C	0.42322	0.0974507	0.837147
0	C	0.908957	0.334468	0.532389
0	C	0.678407	0.577768	0.18707
0	C	0.580155	0.903116	0.335788
0	C	0.104698	0.674791	0.0320865
0	C	0.334793	0.423375	0.685653
0	H	0.388906	0.0591354	0.765914
0	H	0.948794	0.34177	0.46277
0	H	0.673332	0.611382	0.117455
0	H	0.611077	0.940732	0.259137
0	H	0.0647515	0.67023	0.966861
0	H	0.339861	0.38972	0.61614
0	C	0.462616	0.0858915	0.928685
0	C	0.919767	0.380826	0.637034
0	C	0.628911	0.539385	0.284777
0	C	0.54369	0.914899	0.435773
0	C	0.093751	0.625313	0.128018
0	C	0.384207	0.461634	0.783645
0	H	0.458518	0.0384186	0.9285
0	H	0.968154	0.424249	0.647795
0	H	0.585231	0.543145	0.289919
0	H	0.546709	0.961926	0.436945
0	H	0.045186	0.582086	0.135927
0	H	0.427836	0.457778	0.789016
