#******************************************
#
# CIF file created by Zeo++
# Zeo++ is an open source package to
# analyze microporous materials
#
#*******************************************

_cell_length_a		15.8213(0)
_cell_length_b		15.6328(0)
_cell_length_c		7.95762(0)
_cell_angle_alpha		90(0)
_cell_angle_beta		90(0)
_cell_angle_gamma		120.47(0)

_symmetry_space_group_name_H-M		'P1'
_symmetry_Int_Tables_number		1
_symmetry_cell_setting		Monoclinic

loop_
_symmetry_equiv_pos_as_xyz
'+x,+y,+z'

loop_
_atom_site_label
_atom_site_type_symbol
_atom_site_fract_x
_atom_site_fract_y
_atom_site_fract_z
0	O	0.578327	0.729056	0.223096
0	O	0.370441	0.908248	0.883146
0	O	0.179999	0.519814	0.559358
0	O	0.510486	0.369771	0.726712
0	O	0.715523	0.186677	0.388702
0	O	0.906509	0.574692	0.0574473
0	O	0.401297	0.708613	0.103538
0	O	0.384615	0.745335	0.762499
0	O	0.338247	0.697306	0.452832
0	O	0.687719	0.38878	0.606852
0	O	0.703067	0.351087	0.265468
0	O	0.749882	0.397482	0.95358
0	O	0.27856	0.485336	0.176664
0	O	0.606186	0.846474	0.823048
0	O	0.234351	0.819298	0.504875
0	O	0.810232	0.612575	0.676602
0	O	0.481215	0.249952	0.324372
0	O	0.853813	0.275254	0.00667914
0	O	0.357192	0.396267	0.163546
0	O	0.698297	0.0165104	0.82292
0	O	0.0667945	0.735061	0.483512
0	O	0.732192	0.70203	0.663639
0	O	0.388162	0.0801753	0.327349
0	O	0.0216421	0.360142	0.985422
0	O	0.556413	0.597837	0.0527985
0	O	0.498151	0.0143292	0.704916
0	O	0.0753361	0.538196	0.376205
0	O	0.53312	0.499736	0.552198
0	O	0.58905	0.0822481	0.206831
0	O	0.0125947	0.556592	0.876801
0	O	0.648991	0.478089	0.175882
0	O	0.620895	0.231658	0.82486
0	O	0.857041	0.437331	0.489022
0	O	0.440688	0.620964	0.673174
0	O	0.465914	0.86472	0.3238
0	O	0.230529	0.658701	0.9877
0	C	0.536252	0.676161	0.0715395
0	C	0.418471	0.915667	0.72833
0	C	0.173549	0.561317	0.404238
0	C	0.552606	0.421049	0.574014
0	C	0.669024	0.180566	0.232798
0	C	0.914181	0.532803	0.903567
0	C	0.424769	0.632522	0.086683
0	C	0.460242	0.845822	0.740103
0	C	0.24055	0.674524	0.421693
0	C	0.664057	0.464647	0.589313
0	C	0.627449	0.250623	0.243651
0	C	0.847445	0.419603	0.922215
0	C	0.378475	0.554755	0.227154
0	C	0.539123	0.878188	0.87692
0	C	0.204049	0.718913	0.555969
0	C	0.710478	0.543345	0.728459
0	C	0.548007	0.218212	0.379512
0	C	0.88393	0.375612	0.0571571
0	C	0.423285	0.487712	0.251884
0	C	0.606273	0.991054	0.9045
0	C	0.0915079	0.669716	0.573263
0	C	0.665606	0.610538	0.751451
0	C	0.480603	0.105238	0.406751
0	C	0.996529	0.425334	0.0747392
0	C	0.529589	0.528985	0.192256
0	C	0.567118	0.0578054	0.843079
0	C	0.0291082	0.561748	0.51184
0	C	0.55952	0.569203	0.690595
0	C	0.519593	0.0384321	0.344249
0	C	0.0587688	0.533315	0.0129184
0	C	0.550918	0.449795	0.124772
0	C	0.64614	0.158931	0.774112
0	C	0.92926	0.536664	0.438879
0	C	0.538353	0.648175	0.621278
0	C	0.440671	0.937636	0.274081
0	C	0.158704	0.55879	0.939662
0	C	0.68241	0.797898	0.212457
0	C	0.294038	0.932778	0.870429
0	C	0.161355	0.419582	0.545986
0	C	0.406805	0.299162	0.715558
0	C	0.790997	0.160735	0.377889
0	C	0.925677	0.675026	0.0419645
0	C	0.274397	0.400186	0.0943948
0	C	0.69298	0.929232	0.748336
0	C	0.154368	0.820145	0.416092
0	C	0.813565	0.696635	0.591575
0	C	0.394925	0.167085	0.248313
0	C	0.934168	0.273912	0.920524
0	C	0.286629	0.415141	0.906181
0	C	0.681493	0.93203	0.560149
0	C	0.160254	0.806371	0.22921
0	C	0.798538	0.679202	0.404238
0	C	0.408682	0.162749	0.0611687
0	C	0.927995	0.284616	0.732697
0	C	0.179943	0.309644	0.151161
0	C	0.77909	0.920155	0.807521
0	C	0.156333	0.914441	0.46761
0	C	0.909156	0.787808	0.642031
0	C	0.308966	0.177804	0.302177
0	C	0.932268	0.180413	0.977218
0	H	0.431313	0.752243	0.20808
0	H	0.342277	0.733296	0.86777
0	H	0.345331	0.671111	0.566047
0	H	0.65815	0.345561	0.71188
0	H	0.744903	0.363474	0.371599
0	H	0.743398	0.424849	0.065824
0	H	0.648176	0.425213	0.248954
0	H	0.663691	0.272786	0.921474
0	H	0.814305	0.43926	0.581677
0	H	0.44228	0.673472	0.748227
0	H	0.422316	0.822422	0.418795
0	H	0.274603	0.657938	0.0789805
0	H	0.570308	0.722345	0.957043
0	H	0.371013	0.903465	0.616597
0	H	0.18976	0.528591	0.29292
0	H	0.518363	0.373953	0.46053
0	H	0.717423	0.193217	0.122396
0	H	0.897859	0.564902	0.791493
0	H	0.390061	0.597923	0.961308
0	H	0.491187	0.843163	0.613457
0	H	0.246549	0.710601	0.295694
0	H	0.698549	0.498686	0.463413
0	H	0.596863	0.253043	0.116417
0	H	0.840981	0.382927	0.796999
0	H	0.371204	0.588346	0.346771
0	H	0.50694	0.83692	0.997333
0	H	0.241526	0.727108	0.679403
0	H	0.718065	0.510792	0.848933
0	H	0.579742	0.259368	0.500164
0	H	0.84614	0.367327	0.180315
0	H	0.41747	0.464272	0.38695
0	H	0.626849	0.0071099	0.0409653
0	H	0.0712916	0.674016	0.707026
0	H	0.671024	0.634189	0.886297
0	H	0.460474	0.0890571	0.543404
0	H	0.0165755	0.421305	0.20877
0	H	0.580617	0.571639	0.298273
0	H	0.525542	0.0678579	0.948525
0	H	0.0202739	0.51059	0.618283
0	H	0.50812	0.527036	0.796486
0	H	0.560774	0.0279986	0.450007
0	H	0.0673926	0.584449	0.119298
0	H	0.497764	0.374725	0.17212
0	H	0.720407	0.180203	0.819712
0	H	0.906712	0.589618	0.481401
0	H	0.592045	0.723557	0.66669
0	H	0.366453	0.916381	0.320002
0	H	0.181798	0.50651	0.983503
0	H	0.551022	0.448532	0.985061
0	H	0.646096	0.160181	0.634359
0	H	0.929929	0.534968	0.299075
0	H	0.537424	0.648268	0.481612
0	H	0.440689	0.936858	0.134338
0	H	0.157379	0.559523	0.799778
0	H	0.697573	0.838116	0.332563
0	H	0.262923	0.917083	0.99842
0	H	0.172141	0.403031	0.676537
0	H	0.391752	0.260621	0.837527
0	H	0.817758	0.17111	0.508655
0	H	0.901657	0.687605	0.165048
0	H	0.721261	0.756184	0.205245
0	H	0.32627	0.0115211	0.838901
0	H	0.085818	0.369934	0.504246
0	H	0.366599	0.339287	0.704209
0	H	0.758842	0.0833109	0.338017
0	H	0.00471288	0.725649	0.0233481
0	H	0.699804	0.848306	0.104686
0	H	0.239347	0.884807	0.777019
0	H	0.214918	0.417801	0.460396
0	H	0.390998	0.247704	0.610205
0	H	0.848772	0.211377	0.291177
0	H	0.882064	0.680195	0.939225
0	H	0.344754	0.491499	0.871627
0	H	0.623974	0.949326	0.526494
0	H	0.177682	0.747685	0.200462
0	H	0.740868	0.602126	0.372561
0	H	0.469358	0.14934	0.0319867
0	H	0.922887	0.350567	0.699673
0	H	0.308895	0.365735	0.848048
0	H	0.749426	0.988642	0.500326
0	H	0.0898401	0.783182	0.166545
0	H	0.773982	0.726869	0.346405
0	H	0.343001	0.10261	0.0011266
0	H	0.993234	0.293554	0.668188
0	H	0.21873	0.402613	0.844809
0	H	0.659929	0.859709	0.501225
0	H	0.217729	0.874644	0.168294
0	H	0.865787	0.692277	0.339749
0	H	0.42674	0.233121	0.998541
0	H	0.862586	0.219785	0.678467
0	H	0.179911	0.298915	0.287317
0	H	0.777321	0.9121	0.945297
0	H	0.143753	0.915114	0.603038
0	H	0.911632	0.801686	0.777398
0	H	0.306277	0.181678	0.440012
0	H	0.942863	0.180834	0.113513
0	H	0.116724	0.318924	0.120694
0	H	0.775617	0.853038	0.753974
0	H	0.228988	0.979779	0.439249
0	H	0.971518	0.777218	0.610787
0	H	0.316857	0.247795	0.252682
0	H	0.860244	0.114644	0.947443
0	H	0.168549	0.242125	0.0891991
0	H	0.849153	0.984917	0.772121
0	H	0.100303	0.922963	0.401671
0	H	0.920027	0.854049	0.57608
0	H	0.239101	0.116055	0.258191
0	H	0.989576	0.172175	0.915575
