#******************************************
#
# CIF file created by Zeo++
# Zeo++ is an open source package to
# analyze microporous materials
#
#*******************************************

_cell_length_a		20.5518(0)
_cell_length_b		22.607(0)
_cell_length_c		20.6644(0)
_cell_angle_alpha		90(0)
_cell_angle_beta		114.92(0)
_cell_angle_gamma		90(0)

_symmetry_space_group_name_H-M		'P1'
_symmetry_Int_Tables_number		1
_symmetry_cell_setting		Monoclinic

loop_
_symmetry_equiv_pos_as_xyz
'+x,+y,+z'

loop_
_atom_site_label
_atom_site_type_symbol
_atom_site_fract_x
_atom_site_fract_y
_atom_site_fract_z
0	S	0.187648	0.0741104	0.439647
0	S	0.350277	0.574811	0.584122
0	S	0.85006	0.900994	0.583024
0	S	0.687556	0.400083	0.441162
0	S	0.156999	0.191287	0.653747
0	S	0.383269	0.692304	0.371626
0	S	0.88081	0.783153	0.369492
0	S	0.654278	0.282015	0.653013
0	S	0.442837	0.176592	0.814484
0	S	0.0977482	0.677029	0.209247
0	S	0.594861	0.798201	0.209473
0	S	0.939891	0.297782	0.814642
0	S	0.355738	0.101243	0.0136774
0	S	0.183428	0.600017	0.00945363
0	S	0.681948	0.873607	0.0103443
0	S	0.854406	0.374771	0.0145686
0	S	0.466964	0.886029	0.0071472
0	S	0.0735427	0.384266	0.0162427
0	S	0.570753	0.0888189	0.0168779
0	S	0.964164	0.590584	0.00776176
0	S	0.202168	0.795647	0.857324
0	S	0.339709	0.296524	0.164923
0	S	0.835515	0.179282	0.166522
0	S	0.698023	0.678412	0.859054
0	S	0.309581	0.776793	0.660616
0	S	0.23147	0.279948	0.361165
0	S	0.728216	0.198169	0.36332
0	S	0.8063	0.694971	0.662844
0	S	0.0607895	0.888751	0.508898
0	S	0.480267	0.391341	0.515554
0	S	0.977338	0.0864924	0.514732
0	S	0.557261	0.583668	0.50892
0	O	0.170463	0.978262	0.533051
0	O	0.370063	0.480138	0.490553
0	O	0.867681	0.996797	0.490061
0	O	0.667344	0.494712	0.534349
0	O	0.215174	0.0985816	0.583561
0	O	0.324031	0.599768	0.440565
0	O	0.822831	0.876276	0.43942
0	O	0.713398	0.374897	0.584359
0	O	0.286009	0.135824	0.742378
0	O	0.254833	0.636676	0.281923
0	O	0.751803	0.838771	0.281203
0	O	0.782685	0.33784	0.74238
0	O	0.383809	0.094643	0.878865
0	O	0.157385	0.594587	0.14537
0	O	0.653779	0.880178	0.145082
0	O	0.880387	0.380244	0.878643
0	O	0.368269	0.99286	0.951435
0	O	0.171635	0.491822	0.0718231
0	O	0.669382	0.981973	0.0725797
0	O	0.866089	0.482991	0.952191
0	O	0.336839	0.874183	0.889597
0	O	0.20426	0.373945	0.13299
0	O	0.700927	0.100719	0.134388
0	O	0.833463	0.60089	0.891008
0	O	0.24316	0.835688	0.752561
0	O	0.299853	0.337497	0.270027
0	O	0.794604	0.139268	0.271323
0	O	0.737979	0.637425	0.754051
0	O	0.215134	0.875744	0.615219
0	O	0.326737	0.378479	0.407094
0	O	0.822859	0.0993116	0.408541
0	O	0.71094	0.596486	0.617162
0	C	0.0074883	0.980514	0.325409
0	C	0.530436	0.481747	0.699564
0	C	0.0302363	0.994376	0.697939
0	C	0.507545	0.493109	0.325056
0	C	0.0622829	0.0229009	0.346172
0	C	0.475122	0.523667	0.678512
0	C	0.975402	0.952022	0.676979
0	C	0.562843	0.451159	0.346318
0	C	0.117762	0.022585	0.414842
0	C	0.42052	0.523576	0.609351
0	C	0.92009	0.952406	0.608223
0	C	0.617255	0.451269	0.415578
0	C	0.118394	0.980459	0.464957
0	C	0.421177	0.482126	0.559107
0	C	0.919629	0.99457	0.558218
0	C	0.616406	0.492747	0.465714
0	C	0.0641952	0.937245	0.444472
0	C	0.475806	0.439282	0.579982
0	C	0.973831	0.0377875	0.578921
0	C	0.561784	0.535599	0.444637
0	C	0.00953908	0.937501	0.375615
0	C	0.529642	0.439344	0.64925
0	C	0.0283575	0.0374408	0.647852
0	C	0.508134	0.535526	0.375276
0	C	0.944706	0.981013	0.251203
0	C	0.592545	0.482053	0.77418
0	C	0.0929035	0.993771	0.772226
0	C	0.44566	0.492788	0.250309
0	C	0.930324	0.917683	0.22067
0	C	0.606316	0.418659	0.804533
0	C	0.107371	0.0570695	0.802859
0	C	0.431916	0.55618	0.219945
0	C	0.960242	0.0206755	0.198668
0	C	0.576492	0.521695	0.826384
0	C	0.0771351	0.954103	0.82461
0	C	0.462011	0.453188	0.198264
0	C	0.877877	0.00470345	0.258753
0	C	0.659953	0.505566	0.767651
0	C	0.159757	0.969997	0.764799
0	C	0.378112	0.469217	0.256508
0	C	0.0742995	0.220732	0.440628
0	C	0.464584	0.721216	0.584825
0	C	0.963405	0.754168	0.582709
0	C	0.573088	0.253564	0.43972
0	C	0.0919284	0.225979	0.513967
0	C	0.447498	0.726773	0.511633
0	C	0.945878	0.748799	0.509401
0	C	0.590046	0.247861	0.512862
0	C	0.138675	0.186204	0.563277
0	C	0.4008	0.687267	0.461891
0	C	0.899194	0.788515	0.459948
0	C	0.636696	0.287308	0.562758
0	C	0.168515	0.139623	0.539804
0	C	0.370424	0.640723	0.484793
0	C	0.869362	0.835209	0.483255
0	C	0.667096	0.33395	0.540044
0	C	0.150711	0.133763	0.466686
0	C	0.387455	0.63466	0.55772
0	C	0.887077	0.841201	0.556342
0	C	0.650174	0.340145	0.467151
0	C	0.104308	0.173957	0.417726
0	C	0.43384	0.674582	0.607122
0	C	0.93336	0.80103	0.605438
0	C	0.603878	0.300284	0.417606
0	C	0.0224346	0.265635	0.388893
0	C	0.517163	0.765335	0.637251
0	C	0.0151101	0.709248	0.634578
0	C	0.52061	0.209509	0.387102
0	C	0.0130292	0.256247	0.31163
0	C	0.526085	0.75569	0.714315
0	C	0.024342	0.718732	0.711769
0	C	0.51189	0.219292	0.310124
0	C	0.0525424	0.328333	0.413033
0	C	0.488674	0.828532	0.613822
0	C	0.984895	0.646577	0.610457
0	C	0.54906	0.146278	0.410421
0	C	0.948884	0.258192	0.391038
0	C	0.590655	0.756765	0.635303
0	C	0.0887581	0.716539	0.632615
0	C	0.447014	0.218001	0.388839
0	C	0.317127	0.312731	0.704526
0	C	0.222761	0.813441	0.319405
0	C	0.720494	0.661943	0.319221
0	C	0.815074	0.161206	0.704677
0	C	0.376314	0.278743	0.748372
0	C	0.163892	0.779472	0.274903
0	C	0.66131	0.695996	0.275509
0	C	0.873935	0.195283	0.748991
0	C	0.36803	0.219598	0.763021
0	C	0.172431	0.720324	0.260397
0	C	0.66965	0.755112	0.260789
0	C	0.865286	0.254382	0.763589
0	C	0.29995	0.193301	0.73344
0	C	0.24055	0.694128	0.290633
0	C	0.737791	0.781324	0.290197
0	C	0.797074	0.280428	0.733595
0	C	0.240323	0.227058	0.688975
0	C	0.299916	0.72795	0.335545
0	C	0.79742	0.747491	0.334506
0	C	0.737731	0.246509	0.688863
0	C	0.248898	0.285962	0.675054
0	C	0.291063	0.786801	0.349393
0	C	0.788784	0.688614	0.34848
0	C	0.746683	0.187694	0.67495
0	C	0.324395	0.377157	0.685522
0	C	0.215252	0.877705	0.338781
0	C	0.713116	0.597568	0.338324
0	C	0.822666	0.0969646	0.68529
0	C	0.398599	0.403054	0.733107
0	C	0.140363	0.903077	0.292599
0	C	0.638935	0.571692	0.290636
0	C	0.897599	0.0716534	0.731444
0	C	0.267099	0.414992	0.695898
0	C	0.27131	0.916046	0.326898
0	C	0.770451	0.559583	0.328221
0	C	0.766686	0.0585694	0.697224
0	C	0.312924	0.378859	0.606986
0	C	0.228485	0.879169	0.417831
0	C	0.724376	0.596022	0.416802
0	C	0.809375	0.0955094	0.60622
0	C	0.483989	0.237049	0.0125027
0	C	0.0529724	0.734526	0.00926657
0	C	0.553689	0.73777	0.0114279
0	C	0.984656	0.240159	0.014569
0	C	0.444304	0.196539	0.0331798
0	C	0.0934169	0.694417	0.989074
0	C	0.593395	0.778281	0.990777
0	C	0.944307	0.280302	0.0348471
0	C	0.407878	0.149549	0.989119
0	C	0.131272	0.648333	0.0339938
0	C	0.629796	0.825278	0.0348502
0	C	0.906501	0.326428	0.989981
0	C	0.411726	0.141712	0.923404
0	C	0.128462	0.641189	0.100276
0	C	0.625876	0.833113	0.100529
0	C	0.909279	0.333606	0.923686
0	C	0.445915	0.184858	0.89977
0	C	0.0939818	0.684352	0.123575
0	C	0.591666	0.789963	0.124135
0	C	0.943674	0.290427	0.900318
0	C	0.482346	0.231625	0.944221
0	C	0.0559097	0.730091	0.0781553
0	C	0.555259	0.7432	0.0796803
0	C	0.981664	0.244618	0.945663
0	C	0.527395	0.285135	0.0651137
0	C	0.00684853	0.780678	0.955233
0	C	0.510331	0.689678	0.958815
0	C	0.0306439	0.19387	0.0684772
0	C	0.571788	0.256205	0.138208
0	C	0.962669	0.749416	0.883612
0	C	0.465925	0.718593	0.885715
0	C	0.0749521	0.224977	0.140174
0	C	0.474705	0.330892	0.0712187
0	C	0.056852	0.827498	0.94615
0	C	0.56305	0.643946	0.952715
0	C	0.980487	0.14714	0.0774428
0	C	0.579797	0.316616	0.0408244
0	C	0.953841	0.811291	0.97943
0	C	0.457926	0.658145	0.98306
0	C	0.0835116	0.163172	0.0441613
0	C	0.514925	0.00651945	0.165458
0	C	0.0228892	0.50561	0.858662
0	C	0.522794	0.968352	0.858543
0	C	0.0149807	0.46919	0.165298
0	C	0.514563	0.95527	0.127039
0	C	0.0237725	0.454304	0.897166
0	C	0.523126	0.019586	0.896977
0	C	0.0140257	0.520516	0.126793
0	C	0.466199	0.94913	0.0556593
0	C	0.0730531	0.44797	0.968175
0	C	0.571485	0.0257177	0.968359
0	C	0.96471	0.526852	0.0558002
0	C	0.417365	0.994488	0.0210288
0	C	0.122017	0.493328	0.00247921
0	C	0.620302	0.980343	0.00298135
0	C	0.915764	0.481485	0.0215182
0	C	0.417374	0.0458909	0.0592027
0	C	0.121536	0.54475	0.96413
0	C	0.620289	0.928942	0.964809
0	C	0.916314	0.43004	0.0598582
0	C	0.465474	0.0516807	0.130504
0	C	0.0728669	0.550575	0.89306
0	C	0.572215	0.923167	0.893502
0	C	0.965039	0.424206	0.130911
0	C	0.56604	0.0143631	0.244216
0	C	0.970614	0.513554	0.780283
0	C	0.471746	0.960533	0.779765
0	C	0.067314	0.461249	0.243659
0	C	0.626359	0.967814	0.269227
0	C	0.908949	0.468253	0.757037
0	C	0.411516	0.00715737	0.754656
0	C	0.129003	0.506529	0.266836
0	C	0.521585	0.0075742	0.288203
0	C	0.0133088	0.504731	0.734883
0	C	0.516309	0.967203	0.735866
0	C	0.0246707	0.470114	0.289104
0	C	0.600445	0.0762813	0.255699
0	C	0.938054	0.576167	0.768846
0	C	0.437212	0.89867	0.768249
0	C	0.0998203	0.398617	0.255068
0	C	0.337571	0.78456	0.0664228
0	C	0.205052	0.286953	0.955358
0	C	0.700111	0.190145	0.957414
0	C	0.832632	0.687892	0.0686172
0	C	0.279007	0.777056	0.999924
0	C	0.263607	0.279227	0.0218352
0	C	0.75869	0.197716	0.0238963
0	C	0.774135	0.695679	0.00212098
0	C	0.276877	0.80495	0.938805
0	C	0.265155	0.306003	0.083337
0	C	0.760829	0.169888	0.0850509
0	C	0.772584	0.668896	0.940624
0	C	0.334088	0.841242	0.943649
0	C	0.207355	0.341388	0.0788087
0	C	0.703635	0.13361	0.0802812
0	C	0.830346	0.63345	0.945177
0	C	0.394881	0.845788	0.00907286
0	C	0.146277	0.34548	0.0135674
0	C	0.642825	0.129037	0.0148848
0	C	0.891404	0.629324	0.0104398
0	C	0.396535	0.81806	0.0698118
0	C	0.14514	0.318808	0.952462
0	C	0.641146	0.156691	0.954094
0	C	0.892516	0.655979	0.0715446
0	C	0.335908	0.754856	0.132369
0	C	0.207845	0.259487	0.888754
0	C	0.701778	0.2197	0.891387
0	C	0.829747	0.715305	0.135204
0	C	0.348017	0.688002	0.127727
0	C	0.196427	0.192269	0.890765
0	C	0.689789	0.286589	0.895889
0	C	0.841142	0.782531	0.133281
0	C	0.26234	0.76596	0.133513
0	C	0.281648	0.272316	0.8889
0	C	0.775309	0.208429	0.89023
0	C	0.755903	0.702425	0.134934
0	C	0.394419	0.779258	0.202198
0	C	0.14959	0.285052	0.819506
0	C	0.643195	0.195251	0.821643
0	C	0.887946	0.689695	0.204459
0	C	0.270844	0.653306	0.78255
0	C	0.269484	0.155322	0.240021
0	C	0.766859	0.321633	0.241301
0	C	0.768257	0.819617	0.78395
0	C	0.290399	0.68099	0.732423
0	C	0.250177	0.183521	0.290027
0	C	0.747353	0.293965	0.291469
0	C	0.787573	0.791412	0.733957
0	C	0.282793	0.74191	0.72117
0	C	0.258503	0.244416	0.30119
0	C	0.754958	0.233041	0.30273
0	C	0.779291	0.730509	0.722836
0	C	0.254595	0.776162	0.759885
0	C	0.287342	0.278093	0.262588
0	C	0.783108	0.198782	0.263977
0	C	0.750449	0.696838	0.76144
0	C	0.236411	0.749104	0.811241
0	C	0.305028	0.250563	0.211156
0	C	0.801215	0.225822	0.212553
0	C	0.732689	0.724389	0.81282
0	C	0.244183	0.688281	0.822198
0	C	0.296518	0.18977	0.200273
0	C	0.793412	0.286638	0.201576
0	C	0.741172	0.785187	0.823673
0	C	0.275082	0.58581	0.789484
0	C	0.264114	0.0878477	0.233099
0	C	0.762659	0.389129	0.234365
0	C	0.7736	0.887088	0.790839
0	C	0.211006	0.560813	0.724043
0	C	0.326499	0.0621543	0.299475
0	C	0.826866	0.414102	0.299704
0	C	0.711151	0.912725	0.724479
0	C	0.346355	0.5633	0.790525
0	C	0.191519	0.0666979	0.23
0	C	0.691486	0.411694	0.23351
0	C	0.84616	0.908243	0.793853
0	C	0.270376	0.564352	0.858074
0	C	0.270323	0.0656664	0.165499
0	C	0.767177	0.410555	0.165671
0	C	0.767437	0.909275	0.858457
0	C	0.136421	0.729757	0.48071
0	C	0.402789	0.232786	0.542553
0	C	0.901349	0.245222	0.543225
0	C	0.634902	0.742004	0.481441
0	C	0.0934627	0.780403	0.468832
0	C	0.446158	0.283213	0.554827
0	C	0.944412	0.194642	0.554995
0	C	0.591446	0.691655	0.469386
0	C	0.117541	0.829712	0.513421
0	C	0.423001	0.332382	0.509926
0	C	0.920425	0.145377	0.510329
0	C	0.61459	0.64254	0.514374
0	C	0.18605	0.829237	0.570224
0	C	0.354962	0.332024	0.45241
0	C	0.851891	0.145804	0.453575
0	C	0.682694	0.642899	0.571791
0	C	0.22824	0.777827	0.5842
0	C	0.312334	0.280854	0.438071
0	C	0.809583	0.197138	0.439706
0	C	0.725395	0.694028	0.585979
0	C	0.203997	0.72899	0.539486
0	C	0.335756	0.232112	0.483072
0	C	0.833744	0.245947	0.484487
0	C	0.701993	0.742697	0.540858
0	C	0.111546	0.674394	0.433905
0	C	0.42669	0.177659	0.589902
0	C	0.926148	0.300553	0.590106
0	C	0.611024	0.797003	0.433867
0	C	0.045297	0.686954	0.363917
0	C	0.491513	0.190657	0.66088
0	C	0.992445	0.288	0.660049
0	C	0.546204	0.783847	0.362946
0	C	0.0926872	0.626377	0.476308
0	C	0.447315	0.129437	0.549056
0	C	0.944891	0.348654	0.547713
0	C	0.590393	0.845404	0.4745
0	C	0.17265	0.652313	0.415518
0	C	0.364257	0.155694	0.606258
0	C	0.865027	0.322484	0.608549
0	C	0.673461	0.818801	0.417416
0	H	0.193872	0.0188052	0.550606
0	H	0.346338	0.520616	0.47315
0	H	0.844324	0.956256	0.472418
0	H	0.690987	0.454213	0.551819
0	H	0.0621134	0.0572205	0.308825
0	H	0.474203	0.557459	0.715983
0	H	0.975409	0.917663	0.714216
0	H	0.563899	0.417342	0.308939
0	H	0.967019	0.90408	0.360399
0	H	0.572462	0.406195	0.664623
0	H	0.0709163	0.0708498	0.663236
0	H	0.465294	0.568662	0.359753
0	H	0.91436	0.887848	0.253252
0	H	0.622856	0.38883	0.772397
0	H	0.123319	0.0869276	0.770285
0	H	0.414924	0.585924	0.251814
0	H	0.977657	0.898838	0.21693
0	H	0.558514	0.399849	0.807311
0	H	0.0600715	0.0759163	0.806669
0	H	0.479859	0.575122	0.217594
0	H	0.886326	0.917222	0.166972
0	H	0.64955	0.41806	0.858652
0	H	0.151398	0.0574738	0.856539
0	H	0.389003	0.556725	0.16565
0	H	0.966177	0.0671965	0.215057
0	H	0.570811	0.568264	0.810184
0	H	0.0712164	0.907585	0.808204
0	H	0.467686	0.406613	0.214442
0	H	0.91562	0.0190805	0.145404
0	H	0.620724	0.519932	0.87988
0	H	0.121643	0.955671	0.877949
0	H	0.41793	0.454931	0.144678
0	H	0.00877635	0.00680108	0.193339
0	H	0.527763	0.507857	0.831276
0	H	0.028523	0.967988	0.829779
0	H	0.510831	0.467083	0.193586
0	H	0.88571	0.0504131	0.278514
0	H	0.652819	0.551535	0.748732
0	H	0.151943	0.924244	0.745178
0	H	0.385179	0.423226	0.27535
0	H	0.86471	0.977948	0.295739
0	H	0.673255	0.479063	0.730586
0	H	0.172943	0.996646	0.727742
0	H	0.364594	0.495663	0.293471
0	H	0.830868	0.00465647	0.207175
0	H	0.706611	0.504845	0.819447
0	H	0.206748	0.970122	0.816391
0	H	0.3316	0.469967	0.204604
0	H	0.229948	0.107247	0.636477
0	H	0.309909	0.608444	0.387742
0	H	0.807954	0.867478	0.386511
0	H	0.727575	0.366118	0.637172
0	H	0.068345	0.261808	0.532652
0	H	0.471586	0.762573	0.49343
0	H	0.969456	0.712875	0.490849
0	H	0.565919	0.211991	0.530916
0	H	0.0916047	0.168303	0.361105
0	H	0.446053	0.668803	0.66362
0	H	0.94594	0.806773	0.662017
0	H	0.591763	0.30617	0.361142
0	H	0.975631	0.288684	0.27567
0	H	0.56439	0.78736	0.750799
0	H	0.0614946	0.68618	0.747777
0	H	0.473691	0.187631	0.27352
0	H	0.0639581	0.260814	0.30695
0	H	0.475247	0.761254	0.718921
0	H	0.973313	0.714397	0.716294
0	H	0.562807	0.213818	0.305654
0	H	0.990527	0.212562	0.291429
0	H	0.54726	0.711556	0.733988
0	H	0.0470502	0.762353	0.732027
0	H	0.490678	0.263423	0.290483
0	H	0.0560437	0.339212	0.46597
0	H	0.485588	0.839511	0.561067
0	H	0.981321	0.635671	0.557502
0	H	0.551791	0.135124	0.462998
0	H	0.0188564	0.362086	0.376184
0	H	0.523185	0.861686	0.651117
0	H	0.0185326	0.612789	0.647285
0	H	0.514731	0.113191	0.37287
0	H	0.106585	0.332717	0.415127
0	H	0.434733	0.833811	0.61172
0	H	0.930859	0.642274	0.608406
0	H	0.60314	0.141092	0.412858
0	H	0.950721	0.267796	0.443745
0	H	0.589069	0.766087	0.582642
0	H	0.0869555	0.707079	0.57989
0	H	0.448437	0.208595	0.441414
0	H	0.929006	0.21276	0.377492
0	H	0.609567	0.711076	0.648759
0	H	0.108846	0.761894	0.646414
0	H	0.428096	0.263693	0.375429
0	H	0.908346	0.287373	0.352755
0	H	0.631689	0.785554	0.67367
0	H	0.129111	0.687166	0.670789
0	H	0.406061	0.189241	0.350344
0	H	0.327485	0.116018	0.784691
0	H	0.213609	0.616703	0.239582
0	H	0.710271	0.858646	0.239001
0	H	0.823982	0.357905	0.784584
0	H	0.430136	0.298052	0.771547
0	H	0.110067	0.798732	0.251103
0	H	0.607448	0.676767	0.252501
0	H	0.927823	0.176125	0.772581
0	H	0.201991	0.311688	0.64054
0	H	0.337747	0.812591	0.384281
0	H	0.835692	0.662819	0.382866
0	H	0.700008	0.161828	0.640212
0	H	0.409947	0.400675	0.789742
0	H	0.127658	0.900776	0.235645
0	H	0.627713	0.57404	0.234026
0	H	0.910321	0.0739604	0.788399
0	H	0.441916	0.380746	0.724982
0	H	0.0980127	0.880347	0.301974
0	H	0.595562	0.594037	0.298626
0	H	0.939903	0.0944249	0.72203
0	H	0.401521	0.449826	0.720198
0	H	0.137278	0.949799	0.305596
0	H	0.635937	0.524935	0.303555
0	H	0.900731	0.024934	0.718464
0	H	0.27054	0.410029	0.749951
0	H	0.26618	0.911595	0.272195
0	H	0.767025	0.564279	0.274143
0	H	0.771689	0.063161	0.751873
0	H	0.212633	0.403134	0.658247
0	H	0.326269	0.904135	0.363173
0	H	0.824907	0.571534	0.365818
0	H	0.711709	0.0703115	0.66082
0	H	0.274194	0.462056	0.687591
0	H	0.26441	0.962976	0.336018
0	H	0.763373	0.512577	0.336814
0	H	0.773764	0.0116247	0.688331
0	H	0.353415	0.352581	0.598285
0	H	0.189519	0.851774	0.427688
0	H	0.683694	0.622205	0.425287
0	H	0.848257	0.122964	0.596298
0	H	0.260391	0.361473	0.570843
0	H	0.281912	0.862924	0.453171
0	H	0.776799	0.613589	0.452986
0	H	0.755902	0.111685	0.570916
0	H	0.316469	0.42406	0.589576
0	H	0.223869	0.924123	0.435316
0	H	0.720968	0.550836	0.434332
0	H	0.814056	0.0505646	0.588758
0	H	0.367719	0.0608704	0.902629
0	H	0.173321	0.560722	0.121619
0	H	0.669876	0.913958	0.121325
0	H	0.86443	0.414085	0.902414
0	H	0.442362	0.201747	0.0849906
0	H	0.0946339	0.699083	0.936891
0	H	0.595358	0.773072	0.938975
0	H	0.943097	0.275608	0.0870295
0	H	0.50993	0.263866	0.925175
0	H	0.0280283	0.762285	0.0969095
0	H	0.527643	0.710965	0.0986925
0	H	0.00942589	0.212377	0.926829
0	H	0.538107	0.238871	0.16309
0	H	0.996224	0.732383	0.858463
0	H	0.499598	0.73616	0.860947
0	H	0.0414511	0.24207	0.165358
0	H	0.603918	0.219239	0.132993
0	H	0.932605	0.71183	0.891005
0	H	0.433544	0.755382	0.890887
0	H	0.105168	0.262493	0.132875
0	H	0.609265	0.287744	0.175788
0	H	0.923327	0.779377	0.845271
0	H	0.428676	0.686976	0.848057
0	H	0.114166	0.194883	0.178435
0	H	0.43846	0.311138	0.0917844
0	H	0.0934343	0.808183	0.925705
0	H	0.599244	0.663715	0.932098
0	H	0.944049	0.166476	0.0980559
0	H	0.441272	0.350565	0.0193114
0	H	0.0899392	0.848979	0.996967
0	H	0.596528	0.624298	0.0046235
0	H	0.947232	0.125855	0.0265447
0	H	0.503196	0.366898	0.107553
0	H	0.0262404	0.86204	0.908522
0	H	0.534585	0.607914	0.916418
0	H	0.0109743	0.11243	0.114868
0	H	0.617201	0.285158	0.0342026
0	H	0.918733	0.779035	0.988641
0	H	0.420536	0.689566	0.989768
0	H	0.118813	0.195358	0.0351425
0	H	0.612346	0.349133	0.0807211
0	H	0.918846	0.841852	0.938222
0	H	0.425355	0.625688	0.943094
0	H	0.118308	0.132401	0.0852055
0	H	0.551779	0.340366	0.990498
0	H	0.981385	0.837009	0.0283044
0	H	0.485947	0.634304	0.033321
0	H	0.0558509	0.137659	0.995143
0	H	0.367799	0.952984	0.927087
0	H	0.172887	0.451767	0.0961159
0	H	0.669845	0.0218518	0.0969228
0	H	0.864828	0.523035	0.927879
0	H	0.552704	0.919268	0.152463
0	H	0.985306	0.418408	0.872008
0	H	0.484964	0.0555716	0.871552
0	H	0.052475	0.55643	0.151949
0	H	0.464988	0.0920031	0.159511
0	H	0.073224	0.590842	0.863851
0	H	0.572691	0.882846	0.864491
0	H	0.96474	0.383908	0.160094
0	H	0.605209	0.922769	0.265463
0	H	0.92866	0.422656	0.761231
0	H	0.432775	0.0521791	0.758549
0	H	0.109324	0.55212	0.262856
0	H	0.663564	0.975044	0.32509
0	H	0.871062	0.47531	0.701378
0	H	0.374444	0.999999	0.698737
0	H	0.167054	0.499358	0.322412
0	H	0.657574	0.96958	0.237405
0	H	0.878799	0.471698	0.789784
0	H	0.380128	0.00541019	0.786308
0	H	0.158941	0.503179	0.233878
0	H	0.55504	0.014144	0.345208
0	H	0.979044	0.511314	0.678096
0	H	0.482842	0.960905	0.678815
0	H	0.058982	0.46358	0.34589
0	H	0.497899	0.963313	0.281587
0	H	0.0354336	0.459918	0.74133
0	H	0.540365	0.0113364	0.742761
0	H	0.00250751	0.514915	0.282611
0	H	0.477479	0.0394691	0.271893
0	H	0.0582986	0.535667	0.75002
0	H	0.560143	0.935054	0.752022
0	H	0.979707	0.439162	0.274043
0	H	0.561467	0.111652	0.247875
0	H	0.977831	0.610738	0.776086
0	H	0.476164	0.863214	0.776395
0	H	0.0600746	0.364086	0.248108
0	H	0.625319	0.0844125	0.21879
0	H	0.913952	0.585446	0.806151
0	H	0.412006	0.8907	0.804907
0	H	0.123647	0.389238	0.217559
0	H	0.642423	0.0813576	0.310063
0	H	0.895661	0.581549	0.714744
0	H	0.395468	0.893552	0.713773
0	H	0.14241	0.393277	0.309073
0	H	0.293793	0.867261	0.841468
0	H	0.24792	0.367987	0.18087
0	H	0.744015	0.107649	0.182487
0	H	0.789832	0.60687	0.84311
0	H	0.233918	0.749031	0.995838
0	H	0.309073	0.251876	0.0255539
0	H	0.803771	0.225731	0.0279247
0	H	0.728681	0.723063	0.99838
0	H	0.444248	0.822639	0.120249
0	H	0.0971929	0.322969	0.902146
0	H	0.593415	0.15209	0.903679
0	H	0.940435	0.651766	0.121881
0	H	0.31002	0.669128	0.0770102
0	H	0.234608	0.172449	0.940751
0	H	0.728038	0.305556	0.946429
0	H	0.803188	0.802333	0.0831732
0	H	0.341027	0.663844	0.170386
0	H	0.20362	0.169768	0.847218
0	H	0.696483	0.31059	0.852968
0	H	0.833581	0.805011	0.176642
0	H	0.402132	0.678803	0.132514
0	H	0.142427	0.18203	0.885636
0	H	0.635801	0.29587	0.891418
0	H	0.895261	0.792825	0.13879
0	H	0.218385	0.744513	0.0888159
0	H	0.325435	0.249457	0.932318
0	H	0.819291	0.230053	0.934734
0	H	0.712113	0.725132	0.0913588
0	H	0.260924	0.748571	0.182432
0	H	0.283432	0.257615	0.839103
0	H	0.77664	0.225515	0.841147
0	H	0.753948	0.717249	0.184609
0	H	0.250206	0.81327	0.131199
0	H	0.293776	0.319689	0.894336
0	H	0.787458	0.161105	0.892879
0	H	0.743907	0.655027	0.129673
0	H	0.38864	0.826916	0.207358
0	H	0.154547	0.333054	0.816586
0	H	0.648892	0.147569	0.816585
0	H	0.883085	0.641674	0.20725
0	H	0.448516	0.770813	0.206205
0	H	0.0953847	0.275054	0.814198
0	H	0.589127	0.203794	0.817667
0	H	0.942172	0.699835	0.209928
0	H	0.391335	0.75811	0.248657
0	H	0.153947	0.266028	0.772593
0	H	0.646244	0.216273	0.7751
0	H	0.883405	0.708577	0.25135
0	H	0.247463	0.852715	0.708259
0	H	0.295705	0.354867	0.314263
0	H	0.79027	0.122226	0.315598
0	H	0.742133	0.620015	0.70983
0	H	0.311576	0.654342	0.701298
0	H	0.22854	0.157254	0.321061
0	H	0.726209	0.320621	0.322619
0	H	0.809165	0.817655	0.702871
0	H	0.22902	0.668102	0.86201
0	H	0.311456	0.169226	0.160493
0	H	0.808463	0.3068	0.161674
0	H	0.726165	0.805747	0.863397
0	H	0.214888	0.571663	0.674122
0	H	0.32127	0.0731315	0.348695
0	H	0.822806	0.403665	0.349639
0	H	0.716205	0.901606	0.675213
0	H	0.208078	0.512595	0.726876
0	H	0.328598	0.0138849	0.296522
0	H	0.830192	0.462265	0.296579
0	H	0.709123	0.961002	0.727313
0	H	0.160043	0.578753	0.720345
0	H	0.378341	0.0793509	0.304781
0	H	0.877714	0.39574	0.303606
0	H	0.659331	0.895626	0.719357
0	H	0.350595	0.572434	0.740336
0	H	0.185797	0.0765579	0.279277
0	H	0.687288	0.402467	0.283696
0	H	0.851664	0.898663	0.744408
0	H	0.351623	0.515301	0.798571
0	H	0.185468	0.0187092	0.22228
0	H	0.68632	0.45971	0.22561
0	H	0.852395	0.956182	0.801958
0	H	0.392512	0.583852	0.833794
0	H	0.146584	0.0875656	0.185679
0	H	0.645249	0.391262	0.190223
0	H	0.89112	0.887143	0.837915
0	H	0.275695	0.516137	0.86321
0	H	0.263844	0.0175093	0.160296
0	H	0.761851	0.45877	0.160519
0	H	0.773983	0.957423	0.863684
0	H	0.218873	0.575447	0.859033
0	H	0.322725	0.0756519	0.166023
0	H	0.81862	0.399444	0.164587
0	H	0.715024	0.899345	0.857936
0	H	0.313003	0.583359	0.90595
0	H	0.229065	0.0850586	0.116965
0	H	0.724484	0.391539	0.117862
0	H	0.808682	0.889838	0.906968
0	H	0.185537	0.913832	0.596872
0	H	0.356298	0.416536	0.425883
0	H	0.852595	0.0612624	0.426715
0	H	0.681273	0.558454	0.598582
0	H	0.0399676	0.781676	0.424519
0	H	0.499231	0.284445	0.599769
0	H	0.997927	0.193408	0.599276
0	H	0.538315	0.690436	0.424532
0	H	0.237913	0.689484	0.550614
0	H	0.301629	0.19275	0.471692
0	H	0.799733	0.285383	0.473445
0	H	0.736169	0.782022	0.552095
0	H	0.998809	0.700971	0.37305
0	H	0.538914	0.20432	0.653148
0	H	0.038934	0.274076	0.650866
0	H	0.498754	0.77041	0.370718
0	H	0.0563443	0.721429	0.332594
0	H	0.479336	0.225564	0.690923
0	H	0.981474	0.253448	0.691332
0	H	0.558321	0.748721	0.333128
0	H	0.0290494	0.647367	0.330276
0	H	0.50689	0.151367	0.695098
0	H	0.00864268	0.327563	0.693744
0	H	0.530925	0.822989	0.328479
0	H	0.0497601	0.640878	0.490782
0	H	0.491967	0.143547	0.537034
0	H	0.987777	0.334222	0.533148
0	H	0.545762	0.831402	0.486606
0	H	0.139094	0.61479	0.525714
0	H	0.402251	0.118184	0.498468
0	H	0.898436	0.360251	0.498357
0	H	0.635465	0.856794	0.525021
0	H	0.0747745	0.585709	0.444961
0	H	0.463607	0.0886592	0.580456
0	H	0.962803	0.389301	0.579109
0	H	0.574066	0.886074	0.442892
0	H	0.194684	0.6885	0.395582
0	H	0.340757	0.192084	0.624321
0	H	0.843119	0.28624	0.628525
0	H	0.697022	0.782282	0.399624
0	H	0.153896	0.618027	0.374245
0	H	0.382117	0.122003	0.648261
0	H	0.883719	0.356789	0.649811
0	H	0.655579	0.852278	0.375161
0	H	0.217269	0.632875	0.461554
0	H	0.320927	0.13555	0.55975
0	H	0.820326	0.341847	0.562532
0	H	0.716742	0.839144	0.463792
