#******************************************
#
# CIF file created by Zeo++
# Zeo++ is an open source package to
# analyze microporous materials
#
#*******************************************

_cell_length_a		17.8377(0)
_cell_length_b		6.63891(0)
_cell_length_c		20.0447(0)
_cell_angle_alpha		90(0)
_cell_angle_beta		88.5275(0)
_cell_angle_gamma		90(0)

_symmetry_space_group_name_H-M		'P1'
_symmetry_Int_Tables_number		1
_symmetry_cell_setting		Monoclinic

loop_
_symmetry_equiv_pos_as_xyz
'+x,+y,+z'

loop_
_atom_site_label
_atom_site_type_symbol
_atom_site_fract_x
_atom_site_fract_y
_atom_site_fract_z
0	C	0.850843	0.362117	0.987518
0	C	0.668694	0.881425	0.496746
0	C	0.165315	0.733099	0.998557
0	C	0.347119	0.218866	0.48933
0	C	0.899387	0.347251	0.933308
0	C	0.620711	0.863243	0.551207
0	C	0.117223	0.749455	0.0530244
0	C	0.395049	0.236761	0.43483
0	H	0.880019	0.359884	0.88211
0	H	0.640164	0.879835	0.602292
0	H	0.136775	0.733858	0.104075
0	H	0.37556	0.2198	0.383767
0	C	0.977831	0.317184	0.942341
0	C	0.542653	0.826431	0.542655
0	C	0.0390679	0.784895	0.0444775
0	C	0.473094	0.273701	0.443339
0	C	0.00627474	0.299153	0.00677343
0	C	0.513862	0.804462	0.478523
0	C	0.0105964	0.808593	0.980249
0	C	0.501934	0.296015	0.507455
0	C	0.954056	0.313439	0.0631416
0	C	0.565388	0.823152	0.421905
0	C	0.0620288	0.788351	0.923524
0	C	0.45047	0.277287	0.564115
0	C	0.879016	0.34666	0.0534665
0	C	0.640096	0.863571	0.431086
0	C	0.136819	0.749644	0.932769
0	C	0.375753	0.236882	0.554968
0	H	0.839624	0.360664	0.0958799
0	H	0.67877	0.882499	0.388384
0	H	0.175717	0.732314	0.89014
0	H	0.337077	0.218006	0.597669
0	C	0.767991	0.408447	0.982372
0	C	0.751349	0.930447	0.501522
0	C	0.248077	0.685898	0.00387516
0	C	0.264475	0.170024	0.484528
0	H	0.761708	0.561482	0.00854201
0	H	0.757921	0.0810028	0.474093
0	H	0.254533	0.53286	0.977882
0	H	0.257831	0.0195171	0.511986
0	C	0.716908	0.26484	0.0207539
0	C	0.80245	0.781774	0.465428
0	C	0.299268	0.830169	0.965995
0	C	0.213379	0.318901	0.520512
0	C	0.741125	0.0651164	0.0378463
0	C	0.777416	0.580741	0.450653
0	C	0.274547	0.0308711	0.950728
0	C	0.238237	0.52024	0.534965
0	O	0.687649	0.937092	0.0732859
0	O	0.830039	0.448163	0.416398
0	O	0.32662	0.161165	0.914978
0	O	0.185516	0.652653	0.569282
0	C	0.615009	0.996669	0.0846865
0	C	0.903142	0.504109	0.40505
0	C	0.39934	0.102524	0.902326
0	C	0.112488	0.596209	0.580774
0	C	0.5901	0.19049	0.0670165
0	C	0.929174	0.698015	0.421336
0	C	0.425155	0.908873	0.919197
0	C	0.0866039	0.402067	0.564603
0	C	0.645367	0.327922	0.0385412
0	C	0.874622	0.839979	0.448277
0	C	0.370743	0.768965	0.94771
0	C	0.141278	0.260291	0.537758
0	C	0.566462	0.853796	0.114731
0	C	0.95106	0.356368	0.377048
0	C	0.446992	0.24667	0.871891
0	C	0.0644929	0.74375	0.608819
0	H	0.587843	0.706339	0.128825
0	H	0.92896	0.209557	0.363145
0	H	0.424967	0.393671	0.858065
0	H	0.0865483	0.890607	0.622739
0	C	0.49159	0.905715	0.123918
0	C	0.0266361	0.402356	0.369575
0	C	0.521993	0.196874	0.861863
0	C	0.988953	0.697467	0.616259
0	H	0.452703	0.796554	0.146454
0	H	0.0652442	0.287844	0.349978
0	H	0.560169	0.307215	0.83897
0	H	0.95028	0.811903	0.635802
0	C	0.464573	0.0961721	0.1045
0	C	0.0546096	0.593289	0.387206
0	C	0.549956	0.00709425	0.880846
0	C	0.961125	0.50637	0.598651
0	H	0.404745	0.131676	0.111418
0	H	0.114887	0.62434	0.381
0	H	0.609842	0.973179	0.873484
0	H	0.900858	0.475181	0.604797
0	C	0.513219	0.237713	0.0768554
0	C	0.00647928	0.740519	0.412008
0	C	0.502083	0.863846	0.908631
0	C	0.00932908	0.359179	0.573927
0	H	0.493512	0.386371	0.0617017
0	H	0.0269275	0.889952	0.425445
0	H	0.522517	0.715475	0.923332
0	H	0.988985	0.209595	0.560555
0	C	0.740012	0.436971	0.912202
0	C	0.779106	0.9635	0.571481
0	C	0.275733	0.659201	0.0742053
0	C	0.236729	0.1367	0.414585
0	C	0.718851	0.640132	0.896855
0	C	0.800843	0.166599	0.585993
0	C	0.297311	0.456578	0.0897182
0	C	0.214995	0.93349	0.400204
0	O	0.692218	0.687687	0.83228
0	O	0.829214	0.213974	0.650049
0	O	0.32399	0.410311	0.154356
0	O	0.186429	0.885887	0.336263
0	C	0.678474	0.535729	0.787334
0	C	0.842436	0.062911	0.695353
0	C	0.337449	0.56315	0.199038
0	C	0.173201	0.0366716	0.290862
0	C	0.696471	0.333951	0.801382
0	C	0.823224	0.861452	0.682051
0	C	0.318989	0.764532	0.184816
0	C	0.192499	0.238193	0.303987
0	C	0.729486	0.287697	0.865283
0	C	0.789089	0.815017	0.618776
0	C	0.28566	0.809411	0.120941
0	C	0.226689	0.284946	0.367213
0	C	0.642969	0.593222	0.728529
0	C	0.878238	0.120593	0.753984
0	C	0.373164	0.506486	0.257812
0	C	0.137373	0.978603	0.232303
0	H	0.628339	0.750561	0.719998
0	H	0.893887	0.277488	0.76205
0	H	0.388117	0.349369	0.266337
0	H	0.121717	0.821605	0.224376
0	C	0.625439	0.44344	0.683117
0	C	0.894794	0.971065	0.79977
0	C	0.390468	0.656812	0.303102
0	C	0.120905	0.127816	0.18637
0	H	0.596525	0.481328	0.636964
0	H	0.923378	0.00873828	0.846093
0	H	0.419461	0.619531	0.349261
0	H	0.092426	0.0899409	0.14006
0	C	0.642674	0.239609	0.695984
0	C	0.877164	0.767255	0.787299
0	C	0.372868	0.860316	0.290057
0	C	0.138603	0.331675	0.198656
0	H	0.626079	0.126095	0.659613
0	H	0.893598	0.654613	0.823945
0	H	0.389357	0.97424	0.326331
0	H	0.122137	0.444026	0.161901
0	C	0.677938	0.184842	0.753927
0	C	0.841701	0.712294	0.729532
0	C	0.337431	0.914263	0.232114
0	C	0.174108	0.386996	0.256367
0	H	0.691134	0.0267819	0.764995
0	H	0.828442	0.554357	0.718474
0	H	0.324077	0.072155	0.220913
0	H	0.187493	0.544961	0.267254
0	N	0.0270464	0.306796	0.883762
0	N	0.494103	0.817629	0.601624
0	N	0.990256	0.793701	0.103337
0	N	0.521553	0.282101	0.384299
0	O	0.00075874	0.323781	0.828372
0	O	0.521263	0.830982	0.656761
0	O	0.0166624	0.77001	0.158398
0	O	0.494317	0.268446	0.329213
0	O	0.0947236	0.281919	0.892661
0	O	0.425978	0.801023	0.593235
0	O	0.922743	0.823829	0.0950148
0	O	0.589708	0.298687	0.392595
0	O	0.0780533	0.271116	0.0220163
0	O	0.442156	0.770628	0.463836
0	O	0.939253	0.847328	0.965938
0	O	0.573677	0.330263	0.521911
0	H	0.114236	0.257681	0.979931
0	H	0.406393	0.760511	0.506012
0	H	0.904153	0.864414	0.00876087
0	H	0.609202	0.340014	0.479477
0	O	0.988709	0.290953	0.123227
0	O	0.530701	0.798273	0.361947
0	O	0.0270912	0.810231	0.863521
0	O	0.485111	0.302071	0.624121
0	C	0.941702	0.307796	0.183444
0	C	0.574777	0.845344	0.301795
0	C	0.0738432	0.791674	0.803189
0	C	0.441046	0.254123	0.684209
0	H	0.917236	0.458809	0.187065
0	H	0.595075	0.00119177	0.303287
0	H	0.0979884	0.640244	0.799739
0	H	0.421243	0.0978087	0.682697
0	H	0.983108	0.285144	0.222452
0	H	0.532578	0.828163	0.263203
0	H	0.0324291	0.81443	0.764201
0	H	0.483097	0.272312	0.722879
0	H	0.899379	0.188434	0.184702
0	H	0.620284	0.736354	0.295124
0	H	0.116444	0.91031	0.801633
0	H	0.395164	0.361994	0.690838
0	O	0.799736	0.977331	0.0290467
0	O	0.718266	0.496767	0.460869
0	O	0.215387	0.114411	0.961525
0	O	0.2974	0.604313	0.524724
0	O	0.62006	0.517674	0.0315844
0	O	0.901278	0.0286507	0.454989
0	O	0.396731	0.57967	0.954139
0	O	0.11482	0.0714183	0.531248
0	H	0.660764	0.620682	0.0177809
0	H	0.861055	0.134383	0.467365
0	H	0.356506	0.476	0.968487
0	H	0.155081	0.965706	0.5189
0	O	0.717624	0.786147	0.933811
0	O	0.801585	0.312949	0.549229
0	O	0.298868	0.310176	0.0529588
0	O	0.214414	0.787189	0.436983
0	O	0.744748	0.0926454	0.871215
0	O	0.771793	0.620762	0.613695
0	O	0.269356	0.00385501	0.114992
0	O	0.243934	0.479265	0.372152
0	H	0.763005	0.045425	0.916566
0	H	0.752383	0.573863	0.568736
0	H	0.250029	0.0500379	0.0698856
0	H	0.263415	0.526589	0.417037
