#******************************************
#
# CIF file created by Zeo++
# Zeo++ is an open source package to
# analyze microporous materials
#
#*******************************************

_cell_length_a		4.52175(0)
_cell_length_b		12.997(0)
_cell_length_c		26.3366(0)
_cell_angle_alpha		90(0)
_cell_angle_beta		86.5945(0)
_cell_angle_gamma		90(0)

_symmetry_space_group_name_H-M		'P1'
_symmetry_Int_Tables_number		1
_symmetry_cell_setting		Monoclinic

loop_
_symmetry_equiv_pos_as_xyz
'+x,+y,+z'

loop_
_atom_site_label
_atom_site_type_symbol
_atom_site_fract_x
_atom_site_fract_y
_atom_site_fract_z
0	O	0.357234	0.216428	0.662223
0	O	0.840276	0.715102	0.354398
0	C	0.458942	0.115601	0.647368
0	C	0.739052	0.614527	0.369647
0	H	0.702234	0.119921	0.640679
0	H	0.496762	0.618491	0.376771
0	O	0.0573277	0.168173	0.599141
0	O	0.141857	0.667936	0.417544
0	C	0.262323	0.0843418	0.603424
0	C	0.93899	0.583929	0.413287
0	H	0.381268	0.0733868	0.565818
0	H	0.82192	0.571839	0.450927
0	C	0.0946088	0.987608	0.623428
0	C	0.108615	0.487812	0.392707
0	H	0.869231	0.978044	0.609771
0	H	0.33469	0.478748	0.406168
0	O	0.399426	0.0462286	0.688364
0	O	0.796803	0.544984	0.328638
0	C	0.110604	0.994803	0.681972
0	C	0.0896597	0.495506	0.334233
0	H	0.92597	0.0445726	0.698671
0	H	0.270697	0.545678	0.317447
0	O	0.844898	0.837543	0.705853
0	O	0.359199	0.340123	0.310063
0	C	0.137941	0.892822	0.710692
0	C	0.0642813	0.393822	0.305212
0	H	0.311497	0.841188	0.69319
0	H	0.891684	0.341581	0.322509
0	C	0.148192	0.908632	0.768402
0	C	0.0541287	0.410372	0.247538
0	H	0.319204	0.856989	0.784256
0	H	0.882604	0.359652	0.231527
0	H	0.197352	0.988193	0.779799
0	H	0.00616239	0.49012	0.236304
0	C	0.850373	0.869216	0.788502
0	C	0.351425	0.370751	0.227379
0	N	0.709082	0.822664	0.753087
0	N	0.494348	0.324835	0.262822
0	O	0.735188	0.990762	0.849668
0	O	0.468429	0.491655	0.165966
0	C	0.74571	0.879845	0.84342
0	C	0.455827	0.380851	0.172437
0	H	0.506587	0.849985	0.852458
0	H	0.694631	0.350701	0.163428
0	C	0.961708	0.834149	0.880105
0	C	0.23937	0.335274	0.135787
0	H	0.205676	0.855252	0.870287
0	H	0.995675	0.35663	0.145609
0	C	0.859009	0.865774	0.93483
0	C	0.341743	0.366189	0.0809666
0	H	0.651426	0.824342	0.948756
0	H	0.548437	0.324375	0.066977
0	C	0.825125	0.984542	0.938229
0	C	0.377905	0.484729	0.0774054
0	H	0.055123	0.0214559	0.935839
0	H	0.148252	0.521839	0.0799334
0	C	0.620204	0.0269237	0.898985
0	C	0.584761	0.526266	0.116472
0	H	0.379362	0.00350309	0.907667
0	H	0.824272	0.501356	0.107851
0	C	0.641133	0.144019	0.893359
0	C	0.568753	0.643351	0.121955
0	H	0.631527	0.183907	0.93081
0	H	0.581727	0.682905	0.0843647
0	H	0.839066	0.167677	0.86935
0	H	0.370413	0.668087	0.145649
0	C	0.171035	0.259599	0.624752
0	C	0.0273262	0.758873	0.391623
0	O	0.281611	0.901966	0.605927
0	O	0.922713	0.402202	0.410111
0	O	0.955505	0.861102	0.547158
0	O	0.245417	0.362964	0.469635
0	C	0.182582	0.83976	0.567591
0	C	0.0184183	0.341422	0.449192
0	C	0.36258	0.747075	0.560114
0	C	0.835393	0.249625	0.456909
0	C	0.252092	0.6706	0.527703
0	C	0.943269	0.172751	0.489333
0	H	0.0757251	0.689376	0.502499
0	H	0.119853	0.191032	0.51459
0	C	0.399596	0.576341	0.523685
0	C	0.794617	0.0787664	0.493056
0	H	0.31777	0.516628	0.498818
0	H	0.876127	0.0187847	0.517781
0	C	0.650759	0.557904	0.550698
0	C	0.544705	0.06067	0.465624
0	H	0.758649	0.482804	0.547895
0	H	0.438652	0.985122	0.467874
0	C	0.768512	0.634452	0.580823
0	C	0.428348	0.137915	0.435793
0	H	0.950038	0.617833	0.604928
0	H	0.246628	0.122335	0.411574
0	C	0.616033	0.729196	0.586614
0	C	0.581986	0.23256	0.430262
0	H	0.684839	0.786431	0.614001
0	H	0.516083	0.290194	0.402789
0	O	0.930568	0.722737	0.877315
0	O	0.269919	0.223919	0.138637
0	C	0.15767	0.667009	0.852508
0	C	0.0430106	0.168494	0.163563
0	O	0.389099	0.706842	0.837809
0	O	0.812136	0.208372	0.178329
0	C	0.0769684	0.556736	0.848749
0	C	0.124865	0.05828	0.167146
0	H	0.83949	0.541488	0.853994
0	H	0.362639	0.0436976	0.161693
0	H	0.188024	0.510836	0.877309
0	H	0.0142306	0.0125213	0.138744
0	H	0.151157	0.526276	0.811001
0	H	0.0523267	0.0277185	0.205011
0	O	0.0989643	0.84514	0.967389
0	O	0.100571	0.345905	0.0486457
0	C	0.019748	0.805794	0.0160303
0	C	0.180579	0.30985	0.999355
0	O	0.803827	0.751229	0.0228429
0	O	0.39706	0.255877	0.99168
0	C	0.235786	0.838011	0.0517866
0	C	0.963437	0.343683	0.964234
0	H	0.31003	0.918254	0.0460125
0	H	0.885925	0.423113	0.971647
0	H	0.446045	0.790469	0.0441892
0	H	0.754459	0.295124	0.971103
0	H	0.1642	0.824599	0.0917464
0	H	0.0341855	0.333557	0.92404
0	O	0.670138	0.00012009	0.987165
0	O	0.532211	0.499621	0.0283302
0	C	0.748593	0.0799766	0.0188933
0	C	0.448837	0.577879	0.996073
0	O	0.974678	0.128395	0.00970823
0	O	0.220202	0.625422	0.00516552
0	C	0.517105	0.0889404	0.059804
0	C	0.6761	0.586834	0.954534
0	H	0.319658	0.131529	0.0447576
0	H	0.87793	0.627119	0.969211
0	H	0.585064	0.134129	0.0925567
0	H	0.606692	0.633993	0.922464
0	H	0.424164	0.014439	0.0727094
0	H	0.761284	0.512222	0.940324
0	O	0.364595	0.172361	0.869179
0	O	0.845392	0.670235	0.146355
0	C	0.376036	0.266558	0.844663
0	C	0.829495	0.761584	0.173432
0	O	0.566162	0.329613	0.854093
0	O	0.637695	0.824864	0.165334
0	C	0.13432	0.277241	0.810511
0	C	0.0703375	0.769408	0.2081
0	H	0.203618	0.31656	0.774578
0	H	6.38322e-05	0.806758	0.244375
0	H	0.946298	0.324192	0.828821
0	H	0.258846	0.81719	0.190472
0	H	0.0339084	0.202819	0.800519
0	H	0.169498	0.694449	0.216931
0	C	0.928354	0.31739	0.653454
0	C	0.269908	0.816057	0.362549
0	H	0.0198043	0.378278	0.676878
0	H	0.178662	0.876325	0.338847
0	H	0.791412	0.267296	0.679395
0	H	0.405861	0.765189	0.336811
0	H	0.776057	0.353613	0.627821
0	H	0.422902	0.852457	0.387957
0	C	0.347415	0.322378	0.585288
0	C	0.852041	0.821982	0.431053
0	H	0.429278	0.39341	0.60208
0	H	0.7699	0.89287	0.414186
0	H	0.212876	0.344628	0.553433
0	H	0.987736	0.844224	0.462767
0	H	0.537797	0.279497	0.568105
0	H	0.662121	0.77929	0.448535
