#******************************************
#
# CIF file created by Zeo++
# Zeo++ is an open source package to
# analyze microporous materials
#
#*******************************************

_cell_length_a		9.74923(0)
_cell_length_b		15.8303(0)
_cell_length_c		19.4176(0)
_cell_angle_alpha		90(0)
_cell_angle_beta		90(0)
_cell_angle_gamma		90(0)

_symmetry_space_group_name_H-M		'P1'
_symmetry_Int_Tables_number		1
_symmetry_cell_setting		Monoclinic

loop_
_symmetry_equiv_pos_as_xyz
'+x,+y,+z'

loop_
_atom_site_label
_atom_site_type_symbol
_atom_site_fract_x
_atom_site_fract_y
_atom_site_fract_z
0	Br	0.597103	0.302751	0.134891
0	Br	0.987898	0.705269	0.633929
0	Br	0.48001	0.803992	0.359771
0	Br	0.0899042	0.205562	0.860527
0	P	0.460215	0.213367	0.194217
0	P	0.128538	0.79511	0.690784
0	P	0.617239	0.714341	0.300968
0	P	0.951121	0.292519	0.799982
0	O	0.464021	0.128622	0.140285
0	O	0.125177	0.878351	0.635076
0	O	0.613058	0.629704	0.355044
0	O	0.95008	0.378414	0.853282
0	O	0.304762	0.25414	0.194274
0	O	0.283485	0.75308	0.690084
0	O	0.772335	0.755612	0.301084
0	O	0.796564	0.250634	0.798999
0	C	0.607375	0.945101	0.129513
0	C	0.9755	0.061251	0.622224
0	C	0.46985	0.445775	0.365147
0	C	0.100846	0.561348	0.8627
0	C	0.161505	0.0950838	0.291594
0	C	0.416814	0.912434	0.789198
0	C	0.916573	0.596713	0.204276
0	C	0.659004	0.409806	0.6984
0	H	0.0582506	0.120841	0.284968
0	H	0.520119	0.886592	0.784173
0	H	0.019671	0.622626	0.211121
0	H	0.555951	0.383568	0.703593
0	C	0.0673095	0.291784	0.185336
0	C	0.518144	0.71243	0.677442
0	C	0.00929663	0.794129	0.310067
0	C	0.56118	0.209821	0.809629
0	C	0.161413	0.159627	0.122159
0	C	0.42396	0.848336	0.618721
0	C	0.915792	0.66166	0.373402
0	C	0.652954	0.34574	0.86909
0	C	0.194586	0.249712	0.144518
0	C	0.390805	0.757519	0.639088
0	C	0.88245	0.751663	0.350902
0	C	0.687165	0.254999	0.849012
0	C	0.0418423	0.00235123	0.0835709
0	C	0.541157	0.00699036	0.58198
0	C	0.0347727	0.504277	0.412483
0	C	0.535677	0.504331	0.905788
0	H	0.991074	0.943117	0.070464
0	H	0.591038	0.0667181	0.569579
0	H	0.085198	0.444986	0.425772
0	H	0.4861	0.564157	0.918219
0	C	0.243584	0.0825418	0.232989
0	C	0.337557	0.924683	0.729641
0	C	0.833923	0.584176	0.26267
0	C	0.738599	0.422186	0.757849
0	C	0.0449279	0.0694321	0.0368296
0	C	0.538903	0.940716	0.534507
0	C	0.0321452	0.571656	0.458923
0	C	0.537061	0.437904	0.953144
0	H	0.000880442	0.0623309	0.985529
0	H	0.582725	0.948941	0.483251
0	H	0.0767269	0.564856	0.510184
0	H	0.492959	0.446112	0.00430741
0	C	0.10441	0.0127697	0.147344
0	C	0.478336	0.995158	0.645532
0	C	0.972152	0.514572	0.348703
0	C	0.598667	0.492527	0.842272
0	H	0.104338	0.959813	0.184034
0	H	0.477254	0.0477705	0.682681
0	H	0.971684	0.461457	0.312233
0	H	0.600256	0.545195	0.805257
0	C	0.650854	0.0460702	0.199193
0	C	0.931778	0.959799	0.691396
0	C	0.426525	0.5472	0.295845
0	C	0.143923	0.458152	0.79511
0	C	0.171594	0.0886608	0.165575
0	C	0.412058	0.918654	0.662834
0	C	0.90546	0.590505	0.330207
0	C	0.664729	0.415961	0.824853
0	C	0.10152	0.146419	0.0568413
0	C	0.483649	0.863025	0.553667
0	C	0.975689	0.648609	0.438714
0	C	0.592345	0.360233	0.934006
0	H	0.0952219	0.198442	0.0197473
0	H	0.490686	0.81141	0.516137
0	H	0.982341	0.700818	0.475657
0	H	0.584936	0.308683	0.971531
0	C	0.940111	0.235037	0.18656
0	C	0.647405	0.767268	0.677524
0	C	0.136864	0.73771	0.308911
0	C	0.431483	0.264342	0.808706
0	H	0.959819	0.17551	0.213862
0	H	0.629987	0.828256	0.702825
0	H	0.117464	0.67802	0.281785
0	H	0.448594	0.324719	0.782372
0	H	0.903467	0.219223	0.134756
0	H	0.685225	0.780236	0.62539
0	H	0.173692	0.722145	0.360732
0	H	0.393632	0.278563	0.860601
0	H	0.854809	0.266556	0.21309
0	H	0.730741	0.735599	0.70546
0	H	0.221837	0.769387	0.28225
0	H	0.348159	0.231741	0.781471
0	C	0.398831	0.991397	0.0602181
0	C	0.186575	0.0160189	0.554766
0	C	0.677824	0.491963	0.434934
0	C	0.890941	0.516861	0.931653
0	H	0.427415	0.945347	0.0206328
0	H	0.161073	0.0628449	0.515249
0	H	0.648427	0.445992	0.47446
0	H	0.916331	0.564467	0.97048
0	H	0.435537	0.0540868	0.0438496
0	H	0.148699	0.953937	0.537531
0	H	0.641517	0.55478	0.451327
0	H	0.92959	0.455225	0.94947
0	H	0.286777	0.995382	0.0605101
0	H	0.298403	0.0106541	0.556318
0	H	0.789935	0.495563	0.434953
0	H	0.779145	0.510926	0.930424
0	C	0.421382	0.0261648	0.305927
0	C	0.156615	0.982169	0.800339
0	C	0.656949	0.527517	0.18938
0	C	0.918502	0.480329	0.686713
0	H	0.521294	0.995664	0.312498
0	H	0.0565605	0.0128249	0.805612
0	H	0.557172	0.496946	0.182603
0	H	0.0182059	0.511382	0.681318
0	C	0.380791	0.0539032	0.240264
0	C	0.200174	0.953835	0.735365
0	C	0.696908	0.555329	0.255127
0	C	0.875503	0.451916	0.751763
0	C	0.338015	0.0363582	0.363809
0	C	0.237477	0.972384	0.859177
0	C	0.740874	0.537652	0.131698
0	C	0.837274	0.470444	0.62808
0	H	0.373707	0.015138	0.414093
0	H	0.199796	0.994245	0.908899
0	H	0.70575	0.51628	0.0813725
0	H	0.874271	0.492493	0.578277
0	C	0.146232	0.44033	0.151052
0	C	0.430789	0.565834	0.641893
0	C	0.929163	0.942577	0.344221
0	C	0.647955	0.0632847	0.84581
0	H	0.163295	0.455417	0.205809
0	H	0.415661	0.549481	0.696508
0	H	0.912105	0.957861	0.289488
0	H	0.664865	0.0467334	0.791337
0	H	0.116883	0.499724	0.125499
0	H	0.456209	0.506667	0.614958
0	H	0.957945	0.00198711	0.36994
0	H	0.621987	0.00413705	0.872662
0	C	0.728756	0.071799	0.132073
0	C	0.857475	0.93346	0.623419
0	C	0.348371	0.572473	0.363013
0	C	0.219133	0.433586	0.863287
0	H	0.693009	0.131778	0.11013
0	H	0.896658	0.874223	0.601559
0	H	0.384166	0.632271	0.385325
0	H	0.18011	0.375084	0.886431
0	H	0.839267	0.0781389	0.14255
0	H	0.74684	0.925317	0.632715
0	H	0.23793	0.579065	0.352472
0	H	0.329571	0.42492	0.853755
0	C	0.221153	0.315896	0.0847785
0	C	0.358593	0.693301	0.578589
0	C	0.855405	0.817942	0.41048
0	C	0.717643	0.190774	0.909796
0	C	0.30879	0.284515	0.025744
0	C	0.269943	0.72799	0.521257
0	C	0.768601	0.786239	0.469624
0	C	0.804134	0.225157	0.968155
0	H	0.255535	0.290116	0.976086
0	H	0.321499	0.724177	0.471081
0	H	0.823274	0.790326	0.519013
0	H	0.749017	0.223424	0.0174718
0	H	0.339296	0.218029	0.0313749
0	H	0.241231	0.794467	0.529121
0	H	0.736092	0.720183	0.46339
0	H	0.836359	0.29092	0.959911
0	H	0.404081	0.320823	0.0209517
0	H	0.173731	0.692779	0.516041
0	H	0.674537	0.823471	0.475411
0	H	0.898116	0.188233	0.975656
0	C	0.0350138	0.371901	0.140256
0	C	0.54448	0.632696	0.630917
0	C	0.0409314	0.874482	0.355025
0	C	0.533714	0.129988	0.85586
0	C	0.698341	0.997176	0.0828251
0	C	0.88682	0.00882266	0.574741
0	C	0.378379	0.49741	0.411907
0	C	0.190676	0.510337	0.910663
0	H	0.650334	0.0176873	0.0343836
0	H	0.936149	0.989205	0.526337
0	H	0.42587	0.517542	0.460608
0	H	0.142391	0.492316	0.959652
0	H	0.79134	0.961642	0.0685475
0	H	0.793136	0.0435462	0.560276
0	H	0.285281	0.461687	0.425725
0	H	0.284629	0.545561	0.923901
0	C	0.37264	0.898009	0.165109
0	C	0.208276	0.109745	0.659861
0	C	0.704889	0.39906	0.329794
0	C	0.867124	0.608815	0.825662
0	H	0.26502	0.91541	0.172984
0	H	0.315553	0.0926678	0.66908
0	H	0.81242	0.416692	0.321874
0	H	0.759839	0.591307	0.81692
0	H	0.413446	0.881166	0.216029
0	H	0.164807	0.126802	0.7102
0	H	0.664106	0.382184	0.278877
0	H	0.909908	0.625304	0.775055
0	H	0.373922	0.84038	0.133689
0	H	0.207987	0.167177	0.6282
0	H	0.703958	0.341361	0.361124
0	H	0.867412	0.666731	0.856755
0	C	0.705157	0.0906165	0.262039
0	C	0.875232	0.915248	0.75374
0	C	0.372446	0.592141	0.233133
0	C	0.199547	0.41208	0.733259
0	H	0.637619	0.0867489	0.307095
0	H	0.942049	0.917697	0.799108
0	H	0.440565	0.588974	0.188264
0	H	0.130199	0.411065	0.688844
0	H	0.726017	0.157777	0.252888
0	H	0.852444	0.848431	0.743904
0	H	0.350892	0.659154	0.242702
0	H	0.226338	0.346199	0.744685
0	H	0.803308	0.06185	0.277601
0	H	0.777689	0.944992	0.769191
0	H	0.274712	0.563293	0.217084
0	H	0.294621	0.442876	0.715608
0	C	0.104949	0.313783	0.259608
0	C	0.483098	0.689657	0.751903
0	C	0.971448	0.816049	0.2358
0	C	0.598411	0.187112	0.735444
0	H	0.0222288	0.348643	0.285128
0	H	0.563824	0.651065	0.775521
0	H	0.0527606	0.852559	0.210668
0	H	0.519176	0.147548	0.711519
0	H	0.198763	0.352462	0.262486
0	H	0.386115	0.654177	0.755549
0	H	0.876002	0.853198	0.232884
0	H	0.696308	0.152504	0.732384
0	H	0.127056	0.256742	0.289684
0	H	0.468124	0.746558	0.783237
0	H	0.952078	0.758908	0.205371
0	H	0.612602	0.243957	0.70396
0	C	0.482083	0.0519735	0.18096
0	C	0.101593	0.955234	0.674889
0	C	0.595244	0.553091	0.314271
0	C	0.974332	0.453989	0.812107
0	C	0.456367	0.967001	0.130057
0	C	0.126859	0.0402275	0.624161
0	C	0.620808	0.467829	0.36494
0	C	0.949537	0.540062	0.861755
0	C	0.651473	0.950346	0.197701
0	C	0.929317	0.055531	0.690043
0	C	0.426148	0.451447	0.29693
0	C	0.146211	0.553957	0.794847
0	H	0.786314	0.794228	0.107367
0	H	0.821973	0.224336	0.614979
0	H	0.289065	0.291935	0.388967
0	H	0.257284	0.72071	0.870702
0	H	0.644475	0.908818	0.240314
0	H	0.934387	0.0970759	0.732672
0	H	0.43356	0.410192	0.254134
0	H	0.140658	0.594413	0.751484
0	C	0.274418	0.400283	0.11729
0	C	0.302997	0.609007	0.61039
0	C	0.801219	0.902032	0.37783
0	C	0.774613	0.106652	0.878269
0	H	0.354661	0.390139	0.156161
0	H	0.225675	0.619297	0.650627
0	H	0.721391	0.891504	0.338817
0	H	0.853042	0.117222	0.838626
0	H	0.3181	0.441326	0.0772224
0	H	0.255067	0.569905	0.570218
0	H	0.756717	0.942897	0.417825
0	H	0.821545	0.0674793	0.918659
0	C	0.0707537	0.341833	0.0664799
0	C	0.506601	0.665116	0.55806
0	C	0.00541244	0.844558	0.428835
0	C	0.568971	0.162459	0.929029
0	H	0.0657326	0.392077	0.0274893
0	H	0.507453	0.615729	0.518147
0	H	0.00971534	0.895003	0.467814
0	H	0.56695	0.113098	0.968868
0	H	0.00606032	0.290229	0.0474005
0	H	0.572375	0.716126	0.538956
0	H	0.0704315	0.793233	0.448064
0	H	0.502264	0.213455	0.947503
0	C	0.209275	0.0740875	0.357082
0	C	0.366171	0.934302	0.854011
0	C	0.86947	0.575509	0.138702
0	C	0.708868	0.431998	0.633513
0	H	0.14577	0.0854096	0.402332
0	H	0.427729	0.923439	0.899952
0	H	0.933375	0.586816	0.0936388
0	H	0.646998	0.42105	0.587648
0	H	0.790718	0.770467	0.0731884
0	H	0.81769	0.225267	0.575697
0	H	0.285822	0.267609	0.422899
0	H	0.25204	0.733559	0.908529
0	H	0.929958	0.395358	0.1475
0	H	0.648747	0.607326	0.636626
0	H	0.145771	0.898249	0.347709
0	H	0.429716	0.104503	0.84929
