#******************************************
#
# CIF file created by Zeo++
# Zeo++ is an open source package to
# analyze microporous materials
#
#*******************************************

_cell_length_a		24.6244(0)
_cell_length_b		24.6491(0)
_cell_length_c		10.6985(0)
_cell_angle_alpha		90(0)
_cell_angle_beta		90(0)
_cell_angle_gamma		120.816(0)

_symmetry_space_group_name_H-M		'P1'
_symmetry_Int_Tables_number		1
_symmetry_cell_setting		Monoclinic

loop_
_symmetry_equiv_pos_as_xyz
'+x,+y,+z'

loop_
_atom_site_label
_atom_site_type_symbol
_atom_site_fract_x
_atom_site_fract_y
_atom_site_fract_z
0	O	0.344982	0.274972	0.456763
0	O	0.778782	0.0877865	0.465103
0	O	0.959675	0.704872	0.462991
0	O	0.711696	0.772397	0.546547
0	O	0.277674	0.959676	0.549659
0	O	0.0970734	0.342243	0.546341
0	O	0.0106091	0.603392	0.800737
0	O	0.444814	0.425076	0.800371
0	O	0.623711	0.0378781	0.80336
0	O	0.376573	0.107449	0.867297
0	O	0.944473	0.287322	0.875706
0	O	0.763846	0.67382	0.878486
0	O	0.679467	0.938894	0.139978
0	O	0.111802	0.759322	0.135329
0	O	0.29219	0.372357	0.131012
0	O	0.0457727	0.443205	0.209334
0	O	0.611714	0.621448	0.207705
0	O	0.43228	0.00836565	0.206623
0	O	0.306595	0.0813877	0.49158
0	O	0.973932	0.246153	0.494431
0	O	0.804915	0.743082	0.493395
0	O	0.749662	0.965927	0.518469
0	O	0.0827014	0.801182	0.51671
0	O	0.252014	0.3043	0.513434
0	O	0.973068	0.409495	0.823537
0	O	0.640285	0.581726	0.827345
0	O	0.470378	0.0790199	0.821561
0	O	0.414722	0.301437	0.849172
0	O	0.7483	0.131368	0.853166
0	O	0.91698	0.632994	0.849328
0	O	0.641478	0.744916	0.158235
0	O	0.307923	0.915158	0.156928
0	O	0.139227	0.413383	0.160614
0	O	0.0832012	0.637084	0.186716
0	O	0.416042	0.464983	0.180827
0	O	0.585843	0.967539	0.187741
0	C	0.311956	0.205546	0.476315
0	C	0.848465	0.124944	0.482856
0	C	0.923685	0.737716	0.479175
0	C	0.744616	0.841943	0.529311
0	C	0.20808	0.922547	0.530354
0	C	0.133084	0.309463	0.529361
0	C	0.977719	0.533586	0.813042
0	C	0.514608	0.462	0.815338
0	C	0.588379	0.0718276	0.813959
0	C	0.409627	0.177313	0.855797
0	C	0.874552	0.250699	0.86275
0	C	0.798786	0.63983	0.862663
0	C	0.64649	0.869023	0.151338
0	C	0.181738	0.795925	0.148069
0	C	0.257224	0.406314	0.146635
0	C	0.0786734	0.512998	0.196707
0	C	0.541914	0.584633	0.192854
0	C	0.467688	0.974495	0.195724
0	C	0.364519	0.192281	0.496776
0	C	0.862957	0.191566	0.502139
0	C	0.856614	0.6852	0.499809
0	C	0.691966	0.855147	0.509647
0	C	0.193718	0.856011	0.510328
0	C	0.200119	0.362057	0.508691
0	C	0.0302242	0.520357	0.835391
0	C	0.529559	0.528674	0.835842
0	C	0.521095	0.0201869	0.835431
0	C	0.357105	0.190726	0.836001
0	C	0.859056	0.183906	0.841707
0	C	0.866052	0.691594	0.839807
0	C	0.699061	0.855654	0.170945
0	C	0.197237	0.862695	0.169466
0	C	0.189943	0.354569	0.169318
0	C	0.0261546	0.526222	0.17443
0	C	0.52679	0.51789	0.172506
0	C	0.534926	0.0262062	0.174041
0	C	0.363602	0.135444	0.506679
0	C	0.920333	0.248511	0.511027
0	C	0.800691	0.686202	0.509594
0	C	0.692763	0.911971	0.501609
0	C	0.13644	0.799043	0.500434
0	C	0.256071	0.361164	0.49822
0	C	0.0295981	0.463575	0.842929
0	C	0.587322	0.585221	0.843866
0	C	0.465513	0.0220457	0.841716
0	C	0.357998	0.247653	0.829662
0	C	0.80101	0.127585	0.835115
0	C	0.921674	0.689972	0.831242
0	C	0.698233	0.798753	0.177269
0	C	0.2553	0.918996	0.175834
0	C	0.134387	0.356312	0.178231
0	C	0.02673	0.582975	0.167025
0	C	0.468975	0.461407	0.164467
0	C	0.590573	0.0244833	0.167682
0	C	0.420964	0.136143	0.530859
0	C	0.920652	0.305588	0.535651
0	C	0.742774	0.629048	0.53507
0	C	0.635442	0.911327	0.477323
0	C	0.136329	0.7421	0.475437
0	C	0.313937	0.418439	0.473115
0	C	0.0867647	0.464249	0.869253
0	C	0.588504	0.642768	0.86768
0	C	0.407015	0.965669	0.868169
0	C	0.300914	0.247319	0.80462
0	C	0.799324	0.0697927	0.811338
0	C	0.979908	0.74674	0.805217
0	C	0.755372	0.799134	0.201932
0	C	0.25706	0.976777	0.200062
0	C	0.0761188	0.299586	0.20419
0	C	0.969573	0.582288	0.140536
0	C	0.467661	0.403795	0.140603
0	C	0.649002	0.0809879	0.141428
0	C	0.47713	0.193957	0.543515
0	C	0.863289	0.303509	0.548511
0	C	0.74317	0.573025	0.548881
0	C	0.579385	0.853547	0.463109
0	C	0.193783	0.744357	0.462669
0	C	0.313421	0.474428	0.460077
0	C	0.142527	0.522042	0.885827
0	C	0.531508	0.641379	0.881602
0	C	0.406357	0.9093	0.885433
0	C	0.244804	0.189699	0.789226
0	C	0.85599	0.0707587	0.79535
0	C	0.980168	0.802974	0.789161
0	C	0.811476	0.856781	0.217158
0	C	0.200424	0.975824	0.21661
0	C	0.0757218	0.243242	0.219546
0	C	0.913841	0.524484	0.123803
0	C	0.524587	0.405044	0.126744
0	C	0.649501	0.137291	0.124178
0	C	0.478602	0.251671	0.534039
0	C	0.805034	0.246389	0.539254
0	C	0.799305	0.571371	0.53913
0	C	0.578015	0.795828	0.470882
0	C	0.25195	0.80151	0.472774
0	C	0.257248	0.475975	0.470287
0	C	0.143707	0.579669	0.879097
0	C	0.472863	0.584483	0.874558
0	C	0.462124	0.906756	0.8796
0	C	0.243312	0.13191	0.795179
0	C	0.914897	0.127427	0.80074
0	C	0.924235	0.805148	0.796746
0	C	0.812878	0.914535	0.211408
0	C	0.141496	0.919193	0.211271
0	C	0.131567	0.240933	0.211472
0	C	0.912689	0.466873	0.130551
0	C	0.583298	0.461868	0.133889
0	C	0.593625	0.139651	0.129858
0	C	0.422473	0.249971	0.511167
0	C	0.805811	0.191511	0.517191
0	C	0.855041	0.62739	0.515389
0	C	0.634146	0.7975	0.493561
0	C	0.250959	0.856216	0.495694
0	C	0.201583	0.419857	0.493785
0	C	0.0876847	0.57795	0.854911
0	C	0.472802	0.52914	0.852686
0	C	0.518494	0.96217	0.855805
0	C	0.299356	0.133318	0.817284
0	C	0.915503	0.182986	0.823433
0	C	0.868229	0.74956	0.821329
0	C	0.756796	0.913083	0.189575
0	C	0.140828	0.863623	0.188151
0	C	0.187652	0.296516	0.187174
0	C	0.968714	0.468621	0.154872
0	C	0.583476	0.517273	0.155723
0	C	0.53734	0.0841426	0.153592
0	C	0.410881	0.303799	0.49792
0	C	0.751067	0.125183	0.505686
0	C	0.920767	0.638871	0.502721
0	C	0.645918	0.743707	0.504779
0	C	0.3056	0.922497	0.508744
0	C	0.135832	0.408263	0.506717
0	C	0.0757717	0.631691	0.845881
0	C	0.417836	0.462777	0.843362
0	C	0.584068	0.972833	0.848131
0	C	0.311021	0.0793806	0.824808
0	C	0.970891	0.249117	0.83265
0	C	0.802645	0.738669	0.832167
0	C	0.745036	0.966972	0.18242
0	C	0.0854169	0.79753	0.178553
0	C	0.253189	0.307303	0.176139
0	C	0.980637	0.414888	0.164038
0	C	0.638556	0.583573	0.165044
0	C	0.471682	0.0733	0.161169
0	C	0.271294	0.176163	0.362551
0	C	0.876563	0.112749	0.368865
0	C	0.9364	0.777391	0.363687
0	C	0.784967	0.870481	0.643805
0	C	0.179315	0.934332	0.643759
0	C	0.120383	0.269545	0.644475
0	C	0.940463	0.507445	0.694187
0	C	0.541302	0.450202	0.698729
0	C	0.601445	0.10923	0.694959
0	C	0.447693	0.202702	0.974022
0	C	0.849006	0.262583	0.980935
0	C	0.786812	0.601287	0.979615
0	C	0.608372	0.843599	0.0331858
0	C	0.207139	0.784119	0.0295934
0	C	0.269221	0.444818	0.0295966
0	C	0.116091	0.539329	0.315326
0	C	0.515317	0.596622	0.309383
0	C	0.454686	0.937133	0.314737
0	C	0.297067	0.192564	0.242189
0	C	0.860111	0.122004	0.248766
0	C	0.926293	0.750418	0.244451
0	C	0.758857	0.853322	0.763774
0	C	0.195644	0.925427	0.764249
0	C	0.130474	0.296268	0.763958
0	C	0.969918	0.528467	0.577723
0	C	0.523773	0.46036	0.580425
0	C	0.592726	0.0798358	0.578601
0	C	0.417817	0.185727	0.0908688
0	C	0.867181	0.251623	0.0979124
0	C	0.794653	0.628888	0.0977344
0	C	0.638229	0.859944	0.916272
0	C	0.189244	0.795705	0.912902
0	C	0.261904	0.417302	0.911552
0	C	0.0868205	0.518536	0.431996
0	C	0.533045	0.586785	0.427759
0	C	0.463296	0.966537	0.431082
0	C	0.258281	0.165792	0.137661
0	C	0.885698	0.109594	0.143648
0	C	0.940135	0.788287	0.138242
0	C	0.797363	0.879383	0.868926
0	C	0.169484	0.937578	0.868779
0	C	0.116481	0.258147	0.869822
0	C	0.934733	0.504948	0.467971
0	C	0.548217	0.448488	0.472881
0	C	0.605561	0.114956	0.468702
0	C	0.45353	0.207915	0.200318
0	C	0.844806	0.264545	0.207159
0	C	0.782201	0.592308	0.205474
0	C	0.602448	0.837673	0.806928
0	C	0.211366	0.78277	0.803328
0	C	0.274307	0.453825	0.803743
0	C	0.122162	0.542339	0.541516
0	C	0.508644	0.598778	0.535228
0	C	0.450406	0.931399	0.540953
0	C	0.193715	0.122541	0.153101
0	C	0.927897	0.0879884	0.158241
0	C	0.963932	0.853108	0.150778
0	C	0.861995	0.922626	0.854497
0	C	0.12684	0.95857	0.85322
0	C	0.0925667	0.193331	0.856704
0	C	0.870022	0.46052	0.474223
0	C	0.589974	0.426115	0.483066
0	C	0.627188	0.179552	0.474525
0	C	0.519186	0.247368	0.193623
0	C	0.803957	0.288112	0.20003
0	C	0.76178	0.528097	0.195799
0	C	0.536733	0.798728	0.813789
0	C	0.251711	0.758591	0.809801
0	C	0.29423	0.517922	0.813301
0	C	0.186843	0.586834	0.534804
0	C	0.46676	0.620988	0.524892
0	C	0.42879	0.866805	0.535122
0	C	0.167923	0.10587	0.273283
0	C	0.944647	0.0789174	0.278072
0	C	0.973363	0.880031	0.269794
0	C	0.888124	0.940032	0.734688
0	C	0.110186	0.967244	0.732996
0	C	0.0831665	0.166669	0.737449
0	C	0.84055	0.439181	0.590412
0	C	0.607695	0.416083	0.601161
0	C	0.635771	0.209013	0.590609
0	C	0.549113	0.264947	0.0771158
0	C	0.785076	0.298354	0.0833809
0	C	0.754226	0.500475	0.0779573
0	C	0.506813	0.78177	0.930343
0	C	0.270355	0.747758	0.926172
0	C	0.301311	0.545477	0.931077
0	C	0.216126	0.607936	0.418378
0	C	0.448879	0.630743	0.406726
0	C	0.420342	0.837363	0.419072
0	C	0.206586	0.13245	0.378026
0	C	0.919087	0.0912448	0.383373
0	C	0.959589	0.842317	0.376231
0	C	0.849752	0.914203	0.629349
0	C	0.136294	0.955155	0.628279
0	C	0.0970815	0.204623	0.631345
0	C	0.875649	0.462484	0.700438
0	C	0.58355	0.428162	0.708961
0	C	0.622972	0.174028	0.700791
0	C	0.51354	0.242655	0.967327
0	C	0.807472	0.285589	0.973806
0	C	0.766827	0.536929	0.969896
0	C	0.542461	0.804178	0.0400364
0	C	0.248178	0.760504	0.0360816
0	C	0.288678	0.509049	0.0391869
0	C	0.180889	0.584333	0.308613
0	C	0.472941	0.618504	0.299
0	C	0.433203	0.872348	0.308887
0	C	0.420439	0.0757307	0.543579
0	C	0.981363	0.36666	0.549125
0	C	0.682751	0.62933	0.548285
0	C	0.63586	0.971741	0.466051
0	C	0.0757152	0.680974	0.461678
0	C	0.374012	0.418298	0.459469
0	C	0.0866823	0.404004	0.880762
0	C	0.649912	0.703274	0.87948
0	C	0.34749	0.967056	0.879296
0	C	0.301616	0.307831	0.792551
0	C	0.737848	0.00939749	0.80296
0	C	0.039608	0.745645	0.794382
0	C	0.754753	0.738651	0.213739
0	C	0.318556	0.0371816	0.208061
0	C	0.0165232	0.300827	0.215887
0	C	0.969651	0.642528	0.129019
0	C	0.406181	0.343394	0.128534
0	C	0.708676	0.0798447	0.130703
0	H	0.283576	0.196914	0.563285
0	H	0.856993	0.105491	0.570021
0	H	0.943743	0.766863	0.565381
0	H	0.773263	0.851377	0.442466
0	H	0.200025	0.942289	0.443064
0	H	0.112964	0.280485	0.442991
0	H	0.946916	0.522201	0.897129
0	H	0.524178	0.442387	0.901013
0	H	0.608484	0.102544	0.898182
0	H	0.439759	0.188719	0.770657
0	H	0.864381	0.27042	0.777989
0	H	0.777773	0.609889	0.777748
0	H	0.616381	0.857557	0.236527
0	H	0.191987	0.776131	0.232603
0	H	0.278208	0.436287	0.231528
0	H	0.109368	0.524249	0.112478
0	H	0.532379	0.604224	0.107099
0	H	0.447564	0.943777	0.111512
0	H	0.439074	0.337955	0.42387
0	H	0.716763	0.118517	0.432039
0	H	0.926219	0.611032	0.428204
0	H	0.617596	0.708897	0.577766
0	H	0.339567	0.928768	0.582847
0	H	0.130354	0.436028	0.581358
0	H	0.105044	0.667854	0.775763
0	H	0.382545	0.455861	0.77187
0	H	0.589961	0.943185	0.778501
0	H	0.282398	0.0434862	0.89583
0	H	0.00612838	0.255768	0.904126
0	H	0.797444	0.768465	0.902496
0	H	0.773631	0.00297817	0.111556
0	H	0.0503021	0.791061	0.106945
0	H	0.258361	0.277771	0.105124
0	H	0.951331	0.378726	0.234121
0	H	0.673758	0.590412	0.236701
0	H	0.465687	0.10303	0.230444
0	H	0.415068	0.328186	0.587418
0	H	0.726779	0.10522	0.595643
0	H	0.940555	0.634065	0.592058
0	H	0.642107	0.720105	0.414447
0	H	0.330262	0.942893	0.419293
0	H	0.115979	0.413086	0.417475
0	H	0.0779655	0.653571	0.93753
0	H	0.394926	0.443159	0.934635
0	H	0.602982	0.969918	0.940196
0	H	0.307561	0.0570438	0.73306
0	H	0.993923	0.26871	0.741499
0	H	0.78265	0.740995	0.740981
0	H	0.748453	0.989148	0.274338
0	H	0.0622562	0.777804	0.269527
0	H	0.273074	0.304495	0.267115
0	H	0.978484	0.392998	0.0724221
0	H	0.661564	0.603097	0.0737968
0	H	0.452654	0.0758717	0.0689864
0	H	0.522753	0.296348	0.545664
0	H	0.760676	0.245512	0.550336
0	H	0.7987	0.527258	0.551091
0	H	0.53395	0.751193	0.458143
0	H	0.296399	0.802571	0.461701
0	H	0.257749	0.520063	0.458819
0	H	0.187412	0.624321	0.893947
0	H	0.428892	0.5842	0.887242
0	H	0.460776	0.862476	0.894856
0	H	0.199249	0.0874502	0.78141
0	H	0.958482	0.127206	0.786351
0	H	0.9252	0.849331	0.782484
0	H	0.856929	0.959013	0.225199
0	H	0.0979392	0.919445	0.225922
0	H	0.130478	0.196655	0.225137
0	H	0.869005	0.422213	0.115632
0	H	0.627224	0.462059	0.121251
0	H	0.594842	0.183871	0.114566
0	H	0.5211	0.194493	0.561964
0	H	0.863534	0.347308	0.566965
0	H	0.698693	0.529292	0.568641
0	H	0.535421	0.853046	0.444705
0	H	0.193666	0.700668	0.443731
0	H	0.357853	0.518238	0.440549
0	H	0.186421	0.522648	0.905602
0	H	0.532356	0.68553	0.899395
0	H	0.361375	0.866023	0.904928
0	H	0.200972	0.189453	0.771028
0	H	0.854551	0.026348	0.777423
0	H	0.0248969	0.84644	0.769123
0	H	0.855354	0.857086	0.235163
0	H	0.201915	0.0202364	0.234812
0	H	0.0309556	0.199792	0.23945
0	H	0.869955	0.523865	0.103913
0	H	0.523627	0.36084	0.108906
0	H	0.694452	0.180664	0.10483
0	H	0.375635	0.0379625	0.583583
0	H	0.0194059	0.360319	0.586721
0	H	0.69091	0.675016	0.582982
0	H	0.680834	0.00991282	0.427432
0	H	0.0374929	0.687309	0.425098
0	H	0.365902	0.372841	0.423479
0	H	0.0407373	0.364948	0.91375
0	H	0.688032	0.695848	0.912437
0	H	0.356099	0.0126744	0.915524
0	H	0.348549	0.347214	0.764889
0	H	0.699156	0.0167229	0.773545
0	H	0.0310161	0.699626	0.760783
0	H	0.707976	0.699305	0.242254
0	H	0.357134	0.029942	0.238685
0	H	0.0252925	0.346882	0.249681
0	H	0.0157426	0.6817	0.0968788
0	H	0.368078	0.351011	0.0962543
0	H	0.700282	0.0343028	0.0945248
0	H	0.427341	0.0590365	0.452744
0	H	0.997643	0.391715	0.459151
0	H	0.657223	0.619291	0.458649
0	H	0.628382	0.987741	0.557187
0	H	0.0596985	0.655594	0.551381
0	H	0.399368	0.427798	0.549205
0	H	0.0973529	0.389495	0.790991
0	H	0.665112	0.728867	0.789765
0	H	0.32302	0.958368	0.78873
0	H	0.288268	0.321291	0.88056
0	H	0.724225	0.984501	0.893521
0	H	0.0642429	0.755427	0.884968
0	H	0.767628	0.725049	0.125345
0	H	0.332343	0.061589	0.11701
0	H	0.991613	0.291053	0.12561
0	H	0.958522	0.656807	0.218576
0	H	0.390988	0.317509	0.217948
0	H	0.733018	0.0885699	0.221415
0	H	0.458425	0.0806134	0.606154
0	H	0.976508	0.398899	0.613992
0	H	0.650207	0.592994	0.615387
0	H	0.598164	0.96718	0.403001
0	H	0.0805275	0.649034	0.395914
0	H	0.40664	0.455038	0.393091
0	H	0.122566	0.408256	0.948635
0	H	0.646847	0.735416	0.947478
0	H	0.313871	0.930459	0.944697
0	H	0.267806	0.304569	0.720572
0	H	0.739528	0.976768	0.734382
0	H	0.0728319	0.781654	0.72775
0	H	0.788921	0.742038	0.284988
0	H	0.316781	0.0701778	0.27552
0	H	0.983458	0.264866	0.282789
0	H	0.934062	0.638376	0.0604946
0	H	0.409098	0.311429	0.059864
0	H	0.742332	0.116518	0.0654697
0	H	0.34757	0.226625	0.231248
0	H	0.826925	0.138691	0.238449
0	H	0.907735	0.699727	0.23555
0	H	0.708319	0.819227	0.773967
0	H	0.229173	0.909207	0.775323
0	H	0.149143	0.346956	0.773324
0	H	0.0204518	0.563582	0.573963
0	H	0.490605	0.477273	0.573411
0	H	0.576025	0.029365	0.575089
0	H	0.366501	0.154764	0.095145
0	H	0.899244	0.233329	0.102342
0	H	0.810191	0.679049	0.104339
0	H	0.689594	0.890483	0.911839
0	H	0.157603	0.814501	0.908926
0	H	0.246816	0.367237	0.905044
0	H	0.0363019	0.483394	0.436117
0	H	0.566336	0.570025	0.434884
0	H	0.479907	0.0169881	0.434542
0	H	0.27836	0.178515	0.0437583
0	H	0.872851	0.116847	0.0500222
0	H	0.932238	0.76725	0.0452794
0	H	0.777012	0.866109	0.962526
0	H	0.182242	0.930596	0.962715
0	H	0.12435	0.278987	0.962977
0	H	0.957789	0.521032	0.377162
0	H	0.534894	0.456882	0.380702
0	H	0.598377	0.0918703	0.378103
0	H	0.430091	0.194586	0.291141
0	H	0.859115	0.256046	0.298145
0	H	0.78864	0.613983	0.297386
0	H	0.625849	0.850537	0.716031
0	H	0.197232	0.791719	0.712595
0	H	0.268205	0.432203	0.711874
0	H	0.0992407	0.526415	0.632484
0	H	0.522093	0.590594	0.627471
0	H	0.457532	0.954484	0.63154
0	H	0.16369	0.101758	0.0713828
0	H	0.947763	0.0784372	0.076107
0	H	0.974974	0.882445	0.0676946
0	H	0.891807	0.942808	0.936695
0	H	0.10655	0.96796	0.934882
0	H	0.0813974	0.163783	0.939497
0	H	0.842789	0.442602	0.388356
0	H	0.608612	0.416648	0.398864
0	H	0.637162	0.206625	0.388456
0	H	0.546725	0.264261	0.279336
0	H	0.786909	0.298288	0.285552
0	H	0.751926	0.499846	0.280143
0	H	0.509143	0.781751	0.728153
0	H	0.268533	0.748394	0.723982
0	H	0.304061	0.546129	0.7289
0	H	0.214214	0.604979	0.620463
0	H	0.448134	0.630539	0.609012
0	H	0.41873	0.839721	0.621179
0	H	0.117704	0.0721757	0.285523
0	H	0.977624	0.0622383	0.289461
0	H	0.991479	0.930397	0.279761
0	H	0.938401	0.973719	0.723237
0	H	0.0768323	0.983407	0.720829
0	H	0.0649567	0.116306	0.727022
0	H	0.790256	0.40435	0.595547
0	H	0.640416	0.398932	0.609333
0	H	0.652428	0.259253	0.595295
0	H	0.60017	0.296044	0.0716203
0	H	0.752883	0.31623	0.077607
0	H	0.738563	0.450543	0.0701292
0	H	0.45571	0.751072	0.935978
0	H	0.302159	0.729406	0.931456
0	H	0.316602	0.595322	0.938802
0	H	0.266397	0.64282	0.412882
0	H	0.416065	0.647777	0.398452
0	H	0.40372	0.787135	0.414399
0	H	0.186654	0.119084	0.471687
0	H	0.932403	0.0843612	0.476586
0	H	0.966567	0.863242	0.468912
0	H	0.869973	0.928148	0.536009
0	H	0.123015	0.961667	0.534751
0	H	0.0901315	0.183902	0.538473
0	H	0.852826	0.445703	0.791
0	H	0.597699	0.42067	0.80087
0	H	0.629567	0.197077	0.791046
0	H	0.536976	0.256443	0.876744
0	H	0.792528	0.293325	0.883042
0	H	0.761411	0.515431	0.878259
0	H	0.519016	0.790883	0.130656
0	H	0.262919	0.752266	0.126613
0	H	0.293656	0.53047	0.130767
0	H	0.20356	0.600912	0.217868
0	H	0.458634	0.625741	0.207042
0	H	0.426652	0.849325	0.218629
0	H	0.30813	0.0408801	0.505319
0	H	0.014816	0.289083	0.505952
0	H	0.762773	0.741596	0.506392
0	H	0.748059	0.00648357	0.506503
0	H	0.0419122	0.758256	0.504215
0	H	0.29415	0.305901	0.499264
0	H	0.974898	0.36897	0.835405
0	H	0.681737	0.624185	0.838944
0	H	0.42814	0.0777888	0.830466
0	H	0.41341	0.342166	0.837004
0	H	0.706642	0.0890075	0.842194
0	H	0.958886	0.633951	0.836663
0	H	0.642885	0.704215	0.170076
0	H	0.349644	0.957441	0.167998
0	H	0.0973469	0.41249	0.173181
0	H	0.0813071	0.677573	0.174861
0	H	0.374582	0.422471	0.169811
0	H	0.628066	0.968821	0.177988
