#******************************************
#
# CIF file created by Zeo++
# Zeo++ is an open source package to
# analyze microporous materials
#
#*******************************************

_cell_length_a		14.9147(0)
_cell_length_b		15.1162(0)
_cell_length_c		6.36328(0)
_cell_angle_alpha		90(0)
_cell_angle_beta		90(0)
_cell_angle_gamma		121.446(0)

_symmetry_space_group_name_H-M		'P1'
_symmetry_Int_Tables_number		1
_symmetry_cell_setting		Monoclinic

loop_
_symmetry_equiv_pos_as_xyz
'+x,+y,+z'

loop_
_atom_site_label
_atom_site_type_symbol
_atom_site_fract_x
_atom_site_fract_y
_atom_site_fract_z
0	C	0.285794	0.538272	0.99761
0	C	0.515348	0.758944	0.332566
0	C	0.299728	0.773013	0.663508
0	C	0.391704	0.588886	0.901025
0	C	0.46705	0.814217	0.240174
0	C	0.244727	0.668175	0.568763
0	C	0.450638	0.546056	0.883785
0	C	0.51413	0.917576	0.226608
0	C	0.140092	0.606354	0.551858
0	C	0.414919	0.434612	0.943773
0	C	0.628653	0.995127	0.283552
0	C	0.0603939	0.636791	0.610796
0	C	0.293955	0.377574	0.952404
0	C	0.682634	0.931508	0.29064
0	C	0.123802	0.756406	0.620933
0	O	0.261653	0.358304	0.439258
0	O	0.700279	0.916056	0.776887
0	O	0.138037	0.788162	0.106826
0	C	0.182196	0.261662	0.374329
0	C	0.796098	0.932192	0.712918
0	C	0.121467	0.865892	0.044414
0	C	0.148741	0.251226	0.141531
0	C	0.805903	0.911502	0.478921
0	C	0.14252	0.897959	0.810673
0	C	0.131356	0.342785	0.0829031
0	C	0.709891	0.801235	0.417853
0	C	0.254518	0.919198	0.749094
0	C	0.248177	0.430517	0.0898249
0	C	0.625047	0.83054	0.42579
0	C	0.225974	0.805224	0.756536
0	C	0.0496935	0.339679	0.233761
0	C	0.708038	0.720808	0.567411
0	C	0.335834	0.00191821	0.897782
0	C	0.953147	0.228092	0.231502
0	C	0.818935	0.736178	0.567429
0	C	0.319564	0.0949264	0.896717
0	C	0.95973	0.161898	0.0535056
0	C	0.888797	0.81072	0.390751
0	C	0.243101	0.0849432	0.720777
0	C	0.0528065	0.146029	0.0918891
0	C	0.91013	0.921088	0.429864
0	C	0.131939	0.990613	0.7641
0	C	0.079585	0.324813	0.862699
0	C	0.727197	0.76921	0.196499
0	C	0.286292	0.969268	0.527405
0	C	0.980316	0.218252	0.839964
0	C	0.831541	0.774291	0.176973
0	C	0.27996	0.06625	0.507059
0	C	0.888267	0.226114	0.761357
0	C	0.815214	0.670916	0.103394
0	C	0.384549	0.158292	0.433284
0	C	0.445115	0.384403	0.76934
0	C	0.678873	0.0754912	0.105789
0	C	0.978493	0.604034	0.434189
0	C	0.467187	0.433878	0.150258
0	C	0.634244	0.0494721	0.490346
0	C	0.00540791	0.582931	0.815849
0	C	0.284311	0.450256	0.321143
0	C	0.606007	0.846434	0.657199
0	C	0.209789	0.769271	0.987626
0	O	0.242101	0.270635	0.0292515
0	O	0.790926	0.987367	0.369768
0	O	0.0663336	0.804103	0.700384
0	O	0.236757	0.581177	0.0202609
0	O	0.469377	0.665453	0.351945
0	O	0.394366	0.825872	0.684652
0	O	0.150046	0.193438	0.504204
0	O	0.864245	0.965072	0.84497
0	O	0.0878316	0.898345	0.176862
0	O	0.114475	0.389187	0.724198
0	O	0.664167	0.742544	0.0546315
0	O	0.313876	0.935143	0.385945
0	H	0.421574	0.668864	0.850143
0	H	0.385287	0.762746	0.189908
0	H	0.29757	0.642088	0.51829
0	H	0.531257	0.591334	0.823868
0	H	0.47064	0.953235	0.171038
0	H	0.104951	0.526882	0.492779
0	H	0.264617	0.368874	0.785803
0	H	0.690887	0.911544	0.123733
0	H	0.144008	0.785891	0.454164
0	H	0.0287728	0.396896	0.185203
0	H	0.647669	0.641655	0.516592
0	H	0.416182	0.0252891	0.847096
0	H	0.0806156	0.362687	0.397004
0	H	0.68494	0.727935	0.730659
0	H	0.328884	0.972044	0.0612317
0	H	0.945636	0.18868	0.382918
0	H	0.85865	0.767906	0.719911
0	H	0.287622	0.10111	0.0492471
0	H	0.879338	0.228527	0.214207
0	H	0.813878	0.660929	0.549733
0	H	0.395576	0.168696	0.877676
0	H	0.884827	0.0844526	0.0487135
0	H	0.965266	0.813353	0.38637
0	H	0.23895	0.156791	0.714464
0	H	0.0672328	0.110594	0.95234
0	H	0.948313	0.972417	0.290851
0	H	0.0783755	0.974517	0.627947
0	H	0.0335219	0.0888306	0.22095
0	H	0.968312	0.959596	0.559494
0	H	0.0946292	0.00784152	0.8966
0	H	0.998013	0.174509	0.719716
0	H	0.879349	0.835208	0.0550529
0	H	0.217845	0.0490415	0.385569
0	H	0.822146	0.149386	0.712504
0	H	0.891049	0.678539	0.0669782
0	H	0.376063	0.224199	0.391803
0	H	0.911179	0.277794	0.624352
0	H	0.766964	0.643865	0.960353
0	H	0.413436	0.138015	0.293628
0	H	0.858869	0.256439	0.881711
0	H	0.776049	0.610069	0.222388
0	H	0.445522	0.18495	0.554374
0	H	0.405588	0.380093	0.620265
0	H	0.682078	0.0395067	0.957838
0	H	0.0156279	0.643582	0.285536
0	H	0.420057	0.304164	0.8124
0	H	0.760607	0.134931	0.146708
0	H	0.920991	0.626079	0.474494
0	H	0.529806	0.426677	0.741067
0	H	0.636222	0.115005	0.0755316
0	H	0.935722	0.520449	0.405948
0	H	0.547939	0.452921	0.125746
0	H	0.621078	0.113482	0.467089
0	H	0.942205	0.502571	0.789593
0	H	0.422576	0.357005	0.224663
0	H	0.712065	0.0807003	0.564919
0	H	0.971591	0.6246	0.890982
0	H	0.470348	0.490899	0.26323
0	H	0.574462	0.995432	0.603601
0	H	0.0606169	0.580981	0.928712
0	H	0.244643	0.483202	0.411102
0	H	0.5686	0.772253	0.745826
0	H	0.284659	0.810627	0.0771514
0	H	0.37136	0.501158	0.338067
0	H	0.558265	0.883486	0.674244
0	H	0.173543	0.683659	0.00382564
