#******************************************
#
# CIF file created by Zeo++
# Zeo++ is an open source package to
# analyze microporous materials
#
#*******************************************

_cell_length_a		18.7403(0)
_cell_length_b		20.8313(0)
_cell_length_c		16.1664(0)
_cell_angle_alpha		90(0)
_cell_angle_beta		90(0)
_cell_angle_gamma		90(0)

_symmetry_space_group_name_H-M		'P1'
_symmetry_Int_Tables_number		1
_symmetry_cell_setting		Monoclinic

loop_
_symmetry_equiv_pos_as_xyz
'+x,+y,+z'

loop_
_atom_site_label
_atom_site_type_symbol
_atom_site_fract_x
_atom_site_fract_y
_atom_site_fract_z
0	Si	0.130784	0.17911	0.0343186
0	Si	0.840498	0.798186	0.167394
0	Si	0.370805	0.0619848	0.353865
0	Si	0.0922732	0.434393	0.351813
0	Si	0.131328	0.680872	0.594513
0	Si	0.839964	0.306752	0.592447
0	Si	0.383285	0.561237	0.842648
0	Si	0.0859447	0.933796	0.839445
0	Si	0.628828	0.181573	0.591163
0	Si	0.342216	0.804923	0.605307
0	Si	0.876599	0.0597707	0.832684
0	Si	0.593193	0.435663	0.842589
0	Si	0.628749	0.681133	0.12095
0	Si	0.337569	0.303629	0.0842241
0	Si	0.879453	0.556348	0.355711
0	Si	0.581854	0.937646	0.358104
0	Si	0.200651	0.306065	0.980966
0	Si	0.78382	0.684245	0.062235
0	Si	0.435081	0.940724	0.276273
0	Si	0.0274629	0.555755	0.274859
0	Si	0.196464	0.803036	0.519485
0	Si	0.777234	0.1862	0.511951
0	Si	0.444658	0.439556	0.763078
0	Si	0.025881	0.0543523	0.753707
0	Si	0.690976	0.303674	0.51397
0	Si	0.281924	0.685244	0.52074
0	Si	0.939806	0.936721	0.75565
0	Si	0.531178	0.556827	0.762181
0	Si	0.703612	0.804662	0.0618077
0	Si	0.288093	0.188985	0.981502
0	Si	0.943738	0.436577	0.274385
0	Si	0.521157	0.0584116	0.277226
0	Cl	0.0609241	0.135228	0.955377
0	Cl	0.927656	0.839523	0.109714
0	Cl	0.296684	0.104708	0.277343
0	Cl	0.164293	0.394348	0.269858
0	Cl	0.0602618	0.636604	0.515007
0	Cl	0.911329	0.351301	0.51327
0	Cl	0.312129	0.605163	0.762575
0	Cl	0.15933	0.890032	0.762025
0	Cl	0.557917	0.138482	0.509971
0	Cl	0.415727	0.848573	0.528061
0	Cl	0.801475	0.101866	0.756892
0	Cl	0.664384	0.389196	0.765053
0	Cl	0.559909	0.646815	0.0312989
0	Cl	0.413128	0.350736	0.012841
0	Cl	0.803019	0.596043	0.2791
0	Cl	0.650595	0.893156	0.276107
0	N	0.127915	0.261719	0.0194052
0	N	0.839122	0.717275	0.139983
0	N	0.368789	0.979802	0.334731
0	N	0.0911516	0.517221	0.337965
0	N	0.129286	0.763151	0.575993
0	N	0.842185	0.224549	0.573457
0	N	0.380789	0.478942	0.82472
0	N	0.08701	0.0158752	0.82055
0	N	0.626402	0.264048	0.574611
0	N	0.343715	0.722562	0.587502
0	N	0.875211	0.97724	0.815624
0	N	0.596418	0.517661	0.822313
0	N	0.633708	0.764215	0.113274
0	N	0.34102	0.222045	0.0610393
0	N	0.880077	0.473928	0.338707
0	N	0.584004	0.0200955	0.341464
0	H	0.0844754	0.286632	0.0415663
0	H	0.865713	0.684995	0.177665
0	H	0.332024	0.951779	0.365903
0	H	0.122032	0.545671	0.376174
0	H	0.0922156	0.79086	0.606841
0	H	0.876903	0.195968	0.606609
0	H	0.346636	0.450891	0.85992
0	H	0.119657	0.0445446	0.856431
0	H	0.590974	0.29159	0.608231
0	H	0.374802	0.693336	0.624528
0	H	0.838829	0.94982	0.847797
0	H	0.632875	0.545481	0.853716
0	H	0.600657	0.791832	0.149962
0	H	0.368808	0.191402	0.0992388
0	H	0.848825	0.444648	0.375504
0	H	0.616789	0.0484534	0.377609
0	N	0.215112	0.145598	0.0212443
0	N	0.764463	0.838289	0.132805
0	N	0.453891	0.0964463	0.335434
0	N	0.00991565	0.398359	0.333952
0	N	0.214564	0.646263	0.577869
0	N	0.756429	0.340859	0.575978
0	N	0.466985	0.594719	0.825107
0	N	0.00332594	0.89872	0.819431
0	N	0.712184	0.147823	0.573166
0	N	0.259609	0.839579	0.585088
0	N	0.958073	0.0948948	0.808219
0	N	0.509655	0.401891	0.825112
0	N	0.710717	0.643819	0.106579
0	N	0.2545	0.336826	0.0612394
0	N	0.960901	0.593359	0.334985
0	N	0.498284	0.903793	0.341507
0	H	0.225181	0.101518	0.0478169
0	H	0.751962	0.882102	0.158587
0	H	0.467598	0.137119	0.368314
0	H	0.996153	0.357404	0.366151
0	H	0.228591	0.605804	0.610975
0	H	0.741037	0.379757	0.61134
0	H	0.483037	0.633469	0.860184
0	H	0.989454	0.857107	0.84962
0	H	0.727476	0.107857	0.606515
0	H	0.243947	0.879208	0.618855
0	H	0.967974	0.140909	0.828664
0	H	0.494002	0.362757	0.859851
0	H	0.719679	0.599499	0.132846
0	H	0.232302	0.369421	0.10181
0	H	0.974836	0.633972	0.367895
0	H	0.482194	0.864891	0.376228
0	C	0.163741	0.375462	0.916176
0	C	0.835809	0.625103	0.994212
0	C	0.392442	0.876737	0.207169
0	C	0.0755924	0.618298	0.208481
0	C	0.154313	0.867973	0.451699
0	C	0.822591	0.122893	0.444443
0	C	0.3988	0.376758	0.694962
0	C	0.0771413	0.114739	0.687343
0	C	0.644323	0.367396	0.448193
0	C	0.331276	0.624983	0.452358
0	C	0.89404	0.873698	0.687752
0	C	0.576484	0.61943	0.693563
0	C	0.663602	0.870202	0.992638
0	C	0.346718	0.133469	0.916145
0	C	0.896987	0.374172	0.206508
0	C	0.570626	0.120361	0.211437
0	C	0.105795	0.351117	0.855914
0	C	0.897901	0.660796	0.951259
0	C	0.329024	0.905623	0.158843
0	C	0.138403	0.586215	0.162366
0	C	0.0919503	0.839655	0.401191
0	C	0.884064	0.153785	0.394915
0	C	0.338362	0.40876	0.644717
0	C	0.139162	0.0792999	0.644161
0	C	0.579978	0.337261	0.402882
0	C	0.394382	0.659824	0.410465
0	C	0.833281	0.905365	0.637777
0	C	0.636009	0.586676	0.642711
0	C	0.600888	0.842591	0.941765
0	C	0.411097	0.173205	0.885707
0	C	0.833829	0.405271	0.160071
0	C	0.63274	0.0877532	0.164747
0	H	0.058524	0.333377	0.888671
0	H	0.934417	0.682601	0.99635
0	H	0.285426	0.920409	0.19999
0	H	0.178834	0.567374	0.205053
0	H	0.0483074	0.822995	0.441003
0	H	0.926455	0.171893	0.435498
0	H	0.295963	0.427561	0.684827
0	H	0.178492	0.060615	0.688308
0	H	0.539026	0.320174	0.446113
0	H	0.434818	0.67508	0.455487
0	H	0.790298	0.92314	0.677816
0	H	0.678588	0.567661	0.682358
0	H	0.555919	0.828557	0.981384
0	H	0.446928	0.186359	0.936663
0	H	0.793464	0.424212	0.202791
0	H	0.672937	0.0678533	0.206819
0	H	0.124911	0.31183	0.816523
0	H	0.879167	0.699356	0.910644
0	H	0.344431	0.948089	0.122905
0	H	0.120735	0.545965	0.123668
0	H	0.108455	0.798592	0.363218
0	H	0.86599	0.194394	0.357165
0	H	0.357569	0.449154	0.607287
0	H	0.120096	0.0385183	0.607231
0	H	0.595499	0.296029	0.364651
0	H	0.377356	0.70314	0.377188
0	H	0.852136	0.946275	0.600978
0	H	0.615962	0.546392	0.605709
0	H	0.616107	0.799736	0.906468
0	H	0.395078	0.218166	0.855386
0	H	0.850973	0.445242	0.120558
0	H	0.61421	0.0482673	0.125367
0	H	0.0878067	0.38964	0.814612
0	H	0.929474	0.628041	0.912851
0	H	0.306732	0.870671	0.115248
0	H	0.165222	0.620594	0.121525
0	H	0.0693653	0.875497	0.359002
0	H	0.908658	0.119066	0.352787
0	H	0.313505	0.374416	0.602146
0	H	0.167918	0.11124	0.601609
0	H	0.554288	0.37211	0.361781
0	H	0.421491	0.629037	0.365139
0	H	0.80932	0.870968	0.594534
0	H	0.660846	0.620616	0.599607
0	H	0.580672	0.877915	0.897302
0	H	0.443273	0.146327	0.840246
0	H	0.807108	0.37027	0.120033
0	H	0.660211	0.121959	0.124303
0	C	0.130844	0.427187	0.973366
0	C	0.866619	0.569919	0.0472238
0	C	0.365317	0.820263	0.260761
0	C	0.104515	0.672622	0.264447
0	C	0.125906	0.9229	0.507015
0	C	0.852994	0.0689471	0.499957
0	C	0.366333	0.322545	0.748342
0	C	0.107167	0.169113	0.74231
0	C	0.617678	0.422637	0.504174
0	C	0.359797	0.5686	0.504922
0	C	0.862218	0.819413	0.741598
0	C	0.609747	0.673134	0.747175
0	C	0.63586	0.926446	0.0461767
0	C	0.374451	0.0760959	0.967717
0	C	0.86852	0.318643	0.260761
0	C	0.600572	0.173919	0.267861
0	H	0.0892998	0.408015	0.0141771
0	H	0.898672	0.587344	0.099529
0	H	0.330466	0.836111	0.31146
0	H	0.137301	0.654543	0.315619
0	H	0.0913284	0.905521	0.557075
0	H	0.887633	0.0874273	0.549274
0	H	0.325805	0.340894	0.791897
0	H	0.136838	0.151154	0.796194
0	H	0.58484	0.405541	0.555945
0	H	0.392146	0.584815	0.557574
0	H	0.826004	0.837742	0.789298
0	H	0.647149	0.654477	0.793443
0	H	0.602592	0.910499	0.0983336
0	H	0.402893	0.0912526	0.0237363
0	H	0.834748	0.335718	0.311663
0	H	0.633318	0.155059	0.318751
0	H	0.106	0.465439	0.936666
0	H	0.901481	0.539128	0.00996031
0	H	0.334414	0.786314	0.223259
0	H	0.138179	0.705622	0.228875
0	H	0.0942839	0.956955	0.470557
0	H	0.885193	0.0353838	0.46347
0	H	0.339488	0.286963	0.709217
0	H	0.144206	0.199418	0.707315
0	H	0.584661	0.456329	0.468817
0	H	0.393765	0.537084	0.467566
0	H	0.830945	0.786158	0.70341
0	H	0.639863	0.706894	0.708551
0	H	0.602965	0.959155	0.00911313
0	H	0.412383	0.0474214	0.931476
0	H	0.835885	0.285595	0.224045
0	H	0.634361	0.207006	0.232623
0	H	0.171111	0.450466	0.0125077
0	H	0.824879	0.538825	0.0728791
0	H	0.40946	0.792882	0.28805
0	H	0.0615295	0.701777	0.291138
0	H	0.16932	0.950551	0.535433
0	H	0.810701	0.0405348	0.529306
0	H	0.40667	0.296351	0.784224
0	H	0.0652469	0.200935	0.765935
0	H	0.661927	0.45066	0.530125
0	H	0.316466	0.538686	0.52929
0	H	0.903449	0.790534	0.772016
0	H	0.569157	0.70151	0.779596
0	H	0.679537	0.955244	0.0719749
0	H	0.331579	0.0433905	0.986374
0	H	0.911626	0.289901	0.287808
0	H	0.558062	0.202988	0.295649
0	C	0.224918	0.405841	0.865717
0	C	0.786599	0.596188	0.927036
0	C	0.448635	0.851539	0.14512
0	C	0.0241435	0.647232	0.143951
0	C	0.210988	0.894749	0.391453
0	C	0.767659	0.0941033	0.38367
0	C	0.454088	0.347952	0.63444
0	C	0.0285255	0.144013	0.620047
0	C	0.69718	0.394378	0.383649
0	C	0.28037	0.598728	0.38529
0	C	0.948905	0.844722	0.626866
0	C	0.521343	0.649313	0.633897
0	C	0.721323	0.895491	0.932483
0	C	0.304609	0.10756	0.841141
0	C	0.95049	0.347139	0.142604
0	C	0.519495	0.149864	0.146967
0	H	0.268915	0.422391	0.905838
0	H	0.744635	0.565278	0.953754
0	H	0.500342	0.842085	0.174727
0	H	0.974104	0.66422	0.171879
0	H	0.261623	0.906089	0.422732
0	H	0.719077	0.0774128	0.415374
0	H	0.503683	0.333724	0.66584
0	H	0.978711	0.163419	0.645628
0	H	0.748806	0.407213	0.411298
0	H	0.229962	0.581167	0.411599
0	H	0.998815	0.830903	0.657908
0	H	0.475552	0.670318	0.667068
0	H	0.77235	0.904041	0.964113
0	H	0.253867	0.0853345	0.859381
0	H	0.998016	0.326675	0.172767
0	H	0.475767	0.177164	0.176481
0	H	0.205963	0.447749	0.830902
0	H	0.817311	0.566115	0.884145
0	H	0.431022	0.806446	0.116812
0	H	0.0482393	0.688791	0.113016
0	H	0.19206	0.938947	0.361903
0	H	0.790029	0.0526117	0.351013
0	H	0.43278	0.305028	0.603943
0	H	0.0557901	0.183685	0.588541
0	H	0.675823	0.437845	0.354573
0	H	0.304799	0.558466	0.352078
0	H	0.92746	0.801472	0.597192
0	H	0.545447	0.688167	0.597568
0	H	0.704619	0.941318	0.904914
0	H	0.335313	0.0706454	0.808347
0	H	0.925742	0.308951	0.105709
0	H	0.548025	0.183434	0.106495
0	H	0.248019	0.37243	0.820032
0	H	0.760031	0.633128	0.889825
0	H	0.458049	0.885326	0.0943625
0	H	0.0104567	0.612816	0.095104
0	H	0.223084	0.860891	0.341437
0	H	0.751222	0.12862	0.336164
0	H	0.468379	0.381735	0.585088
0	H	0.0146622	0.108904	0.572115
0	H	0.707618	0.360165	0.333622
0	H	0.267044	0.634986	0.338657
0	H	0.962455	0.87811	0.576813
0	H	0.500433	0.614323	0.589335
0	H	0.731009	0.862165	0.881325
0	H	0.292397	0.145162	0.79589
0	H	0.968773	0.383962	0.0990153
0	H	0.495296	0.113423	0.106901
0	C	0.0947016	0.159884	0.142422
0	C	0.858148	0.812391	0.282045
0	C	0.339853	0.0799953	0.463877
0	C	0.1277	0.414261	0.459537
0	C	0.096441	0.662682	0.70299
0	C	0.874916	0.325142	0.700809
0	C	0.348892	0.580393	0.951157
0	C	0.119221	0.915154	0.948532
0	C	0.594489	0.161372	0.699112
0	C	0.374697	0.824764	0.714169
0	C	0.846582	0.0804568	0.942493
0	C	0.626565	0.418332	0.951945
0	C	0.587522	0.656155	0.224105
0	C	0.366015	0.320023	0.195827
0	C	0.846495	0.575549	0.464712
0	C	0.619702	0.918293	0.464726
0	C	0.134685	0.200625	0.207388
0	C	0.799697	0.779935	0.334534
0	C	0.383095	0.0385749	0.525187
0	C	0.0850483	0.451978	0.525188
0	C	0.136381	0.704354	0.766913
0	C	0.833667	0.285207	0.765416
0	C	0.389088	0.540274	0.0165651
0	C	0.0732775	0.95025	0.0135288
0	C	0.635562	0.200855	0.764323
0	C	0.328969	0.789235	0.778868
0	C	0.890052	0.0407849	0.005418
0	C	0.583346	0.457113	0.0160573
0	C	0.624706	0.692291	0.295509
0	C	0.317748	0.28327	0.256832
0	C	0.888828	0.535757	0.528474
0	C	0.578028	0.956226	0.530952
0	H	0.19262	0.192184	0.206036
0	H	0.745792	0.795634	0.316584
0	H	0.44099	0.0458122	0.518178
0	H	0.0272443	0.44376	0.519622
0	H	0.194357	0.695889	0.765669
0	H	0.775929	0.294818	0.763675
0	H	0.446655	0.550656	0.0171554
0	H	0.016945	0.935633	0.011158
0	H	0.693618	0.194244	0.759325
0	H	0.271773	0.799684	0.771931
0	H	0.947891	0.047756	0.99775
0	H	0.52594	0.446159	0.0134803
0	H	0.682706	0.68387	0.295831
0	H	0.260916	0.2943	0.248297
0	H	0.946741	0.542777	0.522051
0	H	0.520192	0.94755	0.52744
0	H	0.116663	0.188538	0.270037
0	H	0.806089	0.791838	0.400213
0	H	0.369684	0.0508158	0.589232
0	H	0.100458	0.437366	0.587795
0	H	0.118395	0.69354	0.829938
0	H	0.851591	0.296576	0.828319
0	H	0.369179	0.550885	0.0789237
0	H	0.0920062	0.939343	0.0762558
0	H	0.620401	0.186322	0.82701
0	H	0.343974	0.803661	0.841658
0	H	0.87703	0.0548758	0.0689602
0	H	0.600977	0.445914	0.0791497
0	H	0.604235	0.676062	0.355483
0	H	0.330945	0.295759	0.320965
0	H	0.874631	0.549659	0.591731
0	H	0.595001	0.94253	0.593362
0	H	0.126202	0.25241	0.199383
0	H	0.80127	0.727264	0.3293
0	H	0.372777	0.986919	0.518017
0	H	0.0939038	0.504013	0.521079
0	H	0.128026	0.756054	0.757354
0	H	0.840721	0.233239	0.757047
0	H	0.382783	0.488264	0.00749548
0	H	0.0751266	0.00272088	0.00633706
0	H	0.625141	0.252597	0.759528
0	H	0.335408	0.736921	0.775373
0	H	0.879448	0.989119	0.000826702
0	H	0.58917	0.509301	0.0082313
0	H	0.616301	0.744442	0.292604
0	H	0.324018	0.231021	0.251397
0	H	0.878459	0.484039	0.523019
0	H	0.58638	0.00830664	0.525594
0	C	0.106172	0.0881313	0.162747
0	C	0.858048	0.885381	0.299876
0	C	0.35189	0.15171	0.484228
0	C	0.11972	0.341549	0.476228
0	C	0.108398	0.591134	0.72406
0	C	0.865216	0.397182	0.720568
0	C	0.360002	0.65247	0.969923
0	C	0.11513	0.842047	0.9643
0	C	0.604738	0.0891017	0.717024
0	C	0.369044	0.897847	0.729395
0	C	0.859119	0.152682	0.959239
0	C	0.618086	0.345932	0.970717
0	C	0.59785	0.583151	0.236941
0	C	0.361238	0.392778	0.213898
0	C	0.856972	0.647736	0.483091
0	C	0.613861	0.845647	0.482584
0	H	0.0852221	0.0563633	0.114363
0	H	0.894683	0.911822	0.259292
0	H	0.328658	0.183508	0.437281
0	H	0.140366	0.312328	0.425043
0	H	0.0876484	0.559162	0.675871
0	H	0.887326	0.428072	0.672009
0	H	0.338196	0.68342	0.921164
0	H	0.139515	0.813876	0.914324
0	H	0.582087	0.0586325	0.668281
0	H	0.393105	0.926084	0.679302
0	H	0.835632	0.183357	0.911223
0	H	0.641361	0.315597	0.922242
0	H	0.579697	0.554997	0.183579
0	H	0.389596	0.421672	0.167561
0	H	0.837056	0.678315	0.432716
0	H	0.638067	0.816541	0.433405
0	H	0.0786197	0.0752667	0.220304
0	H	0.87495	0.894848	0.363665
0	H	0.326945	0.164057	0.543485
0	H	0.149526	0.327457	0.531706
0	H	0.0811087	0.578429	0.781755
0	H	0.892527	0.409758	0.778304
0	H	0.333248	0.665884	0.0277612
0	H	0.143459	0.829273	0.0213504
0	H	0.578266	0.0756434	0.77496
0	H	0.396941	0.911217	0.786439
0	H	0.834672	0.166917	0.0180903
0	H	0.644833	0.333311	0.0288187
0	H	0.567408	0.566434	0.290702
0	H	0.385388	0.403924	0.27407
0	H	0.827969	0.66177	0.539145
0	H	0.641537	0.833517	0.54025
0	H	0.162716	0.0766018	0.172543
0	H	0.804598	0.906436	0.29304
0	H	0.408834	0.163325	0.490397
0	H	0.0638762	0.327884	0.48703
0	H	0.165065	0.579901	0.73344
0	H	0.808923	0.410115	0.729185
0	H	0.416585	0.664536	0.978197
0	H	0.0599466	0.825618	0.972644
0	H	0.661134	0.0762237	0.724442
0	H	0.313448	0.913489	0.736766
0	H	0.916118	0.164242	0.964228
0	H	0.561869	0.332209	0.978318
0	H	0.653915	0.570889	0.249067
0	H	0.305901	0.409837	0.216873
0	H	0.913272	0.659817	0.493667
0	H	0.558296	0.830097	0.490326
0	C	0.014172	0.175421	0.147672
0	C	0.931604	0.783933	0.30554
0	C	0.259713	0.0641493	0.472564
0	C	0.207379	0.432926	0.465116
0	C	0.0157676	0.677699	0.707334
0	C	0.95508	0.308138	0.705435
0	C	0.26838	0.564719	0.956149
0	C	0.197533	0.937746	0.957118
0	C	0.514246	0.17763	0.703894
0	C	0.4534	0.803625	0.722743
0	C	0.766317	0.0656507	0.95329
0	C	0.706151	0.437076	0.958729
0	C	0.507039	0.67206	0.224848
0	C	0.443991	0.298068	0.208952
0	C	0.766308	0.558983	0.471455
0	C	0.699117	0.938296	0.467731
0	H	0.982292	0.147394	0.103681
0	H	0.975615	0.808325	0.273519
0	H	0.226394	0.0926892	0.430563
0	H	0.240878	0.40326	0.424593
0	H	0.984523	0.646314	0.666607
0	H	0.987245	0.338317	0.664157
0	H	0.236745	0.592685	0.911809
0	H	0.233524	0.912418	0.914599
0	H	0.482532	0.15153	0.657789
0	H	0.488897	0.831053	0.681888
0	H	0.732572	0.0967101	0.914829
0	H	0.739492	0.411519	0.913686
0	H	0.477479	0.645725	0.17704
0	H	0.481564	0.323556	0.168565
0	H	0.732927	0.591365	0.434411
0	H	0.732091	0.909993	0.425032
0	H	0.00293692	0.226389	0.136979
0	H	0.935377	0.732488	0.291303
0	H	0.248084	0.0133427	0.46081
0	H	0.217102	0.483305	0.448674
0	H	0.00348477	0.727474	0.690514
0	H	0.96592	0.257887	0.689501
0	H	0.257248	0.513706	0.944933
0	H	0.203647	0.989384	0.946021
0	H	0.503522	0.228979	0.695928
0	H	0.461258	0.7524	0.7088
0	H	0.752745	0.015732	0.938056
0	H	0.715001	0.488981	0.950099
0	H	0.496638	0.723409	0.215678
0	H	0.451096	0.24608	0.19825
0	H	0.754214	0.509825	0.45153
0	H	0.707242	0.989245	0.452749
0	H	0.993497	0.164253	0.209517
0	H	0.941523	0.789078	0.372092
0	H	0.241081	0.0745238	0.535577
0	H	0.227503	0.426499	0.528261
0	H	0.995456	0.670498	0.770217
0	H	0.975685	0.315582	0.768154
0	H	0.247226	0.575713	0.0178088
0	H	0.217486	0.928695	0.0198216
0	H	0.492412	0.16408	0.764816
0	H	0.472511	0.811151	0.786039
0	H	0.749693	0.0731902	0.0176323
0	H	0.727205	0.425302	0.0201812
0	H	0.482945	0.658805	0.284499
0	H	0.46105	0.307083	0.272854
0	H	0.747889	0.563146	0.535608
0	H	0.720978	0.930984	0.529912
0	N	0.253489	0.252965	0.922715
0	N	0.749936	0.747706	0.00257405
0	N	0.479981	0.998811	0.216878
0	N	0.985135	0.496563	0.21467
0	N	0.24133	0.74506	0.460201
0	N	0.733981	0.245472	0.45293
0	N	0.487455	0.498196	0.702773
0	N	0.984504	0.993876	0.694805
0	H	0.261194	0.257124	0.860602
0	H	0.757402	0.751662	0.940525
0	H	0.483337	0.996754	0.154103
0	H	0.98456	0.49696	0.15169
0	H	0.243088	0.745647	0.397262
0	H	0.734247	0.246335	0.389975
0	H	0.487619	0.497797	0.639863
0	H	0.986431	0.991888	0.631959
