#******************************************
#
# CIF file created by Zeo++
# Zeo++ is an open source package to
# analyze microporous materials
#
#*******************************************

_cell_length_a		7.42778(0)
_cell_length_b		24.1145(0)
_cell_length_c		27.9226(0)
_cell_angle_alpha		90(0)
_cell_angle_beta		90(0)
_cell_angle_gamma		90(0)

_symmetry_space_group_name_H-M		'P1'
_symmetry_Int_Tables_number		1
_symmetry_cell_setting		Monoclinic

loop_
_symmetry_equiv_pos_as_xyz
'+x,+y,+z'

loop_
_atom_site_label
_atom_site_type_symbol
_atom_site_fract_x
_atom_site_fract_y
_atom_site_fract_z
0	I	0.778192	0.283475	0.0858791
0	I	0.805018	0.750984	0.583749
0	I	0.290655	0.78197	0.386282
0	I	0.280279	0.253916	0.887732
0	I	0.664156	0.219667	0.324331
0	I	0.912919	0.818317	0.817832
0	I	0.409224	0.718555	0.146151
0	I	0.162576	0.319285	0.654916
0	I	0.351197	0.036723	0.20006
0	I	0.239657	0.996863	0.696698
0	I	0.728457	0.534136	0.274116
0	I	0.860092	0.488374	0.773113
0	O	0.657081	0.174499	0.85357
0	O	0.893921	0.861905	0.351571
0	O	0.42719	0.673581	0.617765
0	O	0.163891	0.36046	0.120906
0	O	0.667093	0.0931785	0.893546
0	O	0.924952	0.942257	0.392452
0	O	0.419237	0.591924	0.578123
0	O	0.145408	0.4417	0.0808116
0	O	0.447322	0.1569	0.450556
0	O	0.135942	0.877031	0.94784
0	O	0.621886	0.657695	0.02212
0	O	0.945157	0.374757	0.526231
0	O	0.507787	0.248706	0.44723
0	O	0.0621481	0.786929	0.937011
0	O	0.559426	0.749403	0.0257994
0	O	0.0093505	0.283548	0.534404
0	O	0.732504	0.0678407	0.388335
0	O	0.857255	0.967589	0.885642
0	O	0.338177	0.567681	0.0835712
0	O	0.227316	0.464432	0.587191
0	O	0.531331	0.0816215	0.328904
0	O	0.0599777	0.95572	0.826301
0	O	0.542446	0.57758	0.142813
0	O	0.0250074	0.460671	0.647424
0	O	0.866534	0.00780496	0.487522
0	O	0.724433	0.0276678	0.985316
0	O	0.203766	0.508751	0.983326
0	O	0.360848	0.523915	0.486226
0	O	0.573246	0.152645	0.52586
0	O	0.00795363	0.880819	0.0230013
0	O	0.500094	0.653579	0.946393
0	O	0.0717087	0.377408	0.450833
0	C	0.455974	0.145837	0.733198
0	C	0.110408	0.888999	0.232459
0	C	0.624227	0.644225	0.738582
0	C	0.957543	0.385859	0.241423
0	C	0.476078	0.168947	0.783935
0	C	0.0841086	0.86678	0.283311
0	C	0.607231	0.666887	0.687614
0	C	0.979559	0.364137	0.190279
0	C	0.64522	0.144851	0.806906
0	C	0.91351	0.891455	0.305041
0	C	0.435859	0.644355	0.664644
0	C	0.148628	0.389123	0.167946
0	C	0.823879	0.155901	0.779042
0	C	0.737681	0.880785	0.275939
0	C	0.257983	0.657581	0.692237
0	C	0.326574	0.377677	0.196028
0	C	0.792755	0.135845	0.726405
0	C	0.775192	0.899875	0.223314
0	C	0.286609	0.637632	0.745012
0	C	0.293747	0.396064	0.249075
0	C	0.957366	0.144217	0.693922
0	C	0.61308	0.891526	0.189948
0	C	0.122328	0.647341	0.777334
0	C	0.457438	0.386766	0.281679
0	C	0.936225	0.111267	0.64719
0	C	0.639211	0.923885	0.1431
0	C	0.140537	0.614046	0.823998
0	C	0.435662	0.418825	0.328846
0	C	0.766078	0.128137	0.618337
0	C	0.811142	0.906214	0.115384
0	C	0.310896	0.629951	0.85314
0	C	0.264462	0.401813	0.357193
0	C	0.598769	0.127548	0.65258
0	C	0.975822	0.906572	0.150552
0	C	0.479131	0.628468	0.819194
0	C	0.0977649	0.402531	0.322715
0	C	0.621462	0.159669	0.70111
0	C	0.947841	0.875214	0.199323
0	C	0.459704	0.660162	0.770344
0	C	0.12206	0.371486	0.273651
0	C	0.43052	0.147015	0.625304
0	C	0.144446	0.886062	0.124004
0	C	0.647111	0.64767	0.846769
0	C	0.930516	0.382034	0.349868
0	C	0.385688	0.107304	0.58435
0	C	0.193444	0.925155	0.0828761
0	C	0.68907	0.608045	0.888004
0	C	0.883786	0.42086	0.391367
0	C	0.545539	0.0981631	0.551068
0	C	0.0365376	0.934977	0.0487388
0	C	0.527819	0.599284	0.92092
0	C	0.0428754	0.431283	0.424641
0	C	0.728423	0.0846129	0.576214
0	C	0.853063	0.949344	0.0732885
0	C	0.345519	0.586228	0.895281
0	C	0.225438	0.445081	0.399396
0	C	0.880172	0.0867317	0.537862
0	C	0.702979	0.947897	0.034462
0	C	0.192596	0.588345	0.933322
0	C	0.376797	0.443339	0.437847
0	C	0.833852	0.0665308	0.48699
0	C	0.752778	0.968765	0.984012
0	C	0.237005	0.567515	0.98418
0	C	0.329964	0.465084	0.48823
0	C	0.638676	0.0805592	0.470756
0	C	0.947719	0.953806	0.968235
0	C	0.431818	0.581158	0.000992255
0	C	0.135195	0.450885	0.50474
0	C	0.495986	0.0606544	0.507864
0	C	0.0900851	0.972611	0.00587957
0	C	0.57553	0.561455	0.964059
0	C	0.992107	0.469657	0.46727
0	C	0.484779	0.997949	0.511064
0	C	0.104579	0.0352379	0.00953213
0	C	0.587156	0.49875	0.960337
0	C	0.97911	0.532349	0.463193
0	C	0.426855	0.973784	0.461813
0	C	0.164318	0.0597941	0.960578
0	C	0.643553	0.473946	0.00947932
0	C	0.921984	0.557608	0.512097
0	C	0.554578	0.994777	0.421772
0	C	0.038009	0.0395975	0.919919
0	C	0.515059	0.49468	0.0494493
0	C	0.0495684	0.537467	0.552503
0	C	0.581986	0.0575999	0.421905
0	C	0.00728604	0.976941	0.919657
0	C	0.487974	0.55762	0.0496971
0	C	0.0777288	0.474649	0.55326
0	C	0.971633	0.119712	0.802256
0	C	0.589687	0.918074	0.297714
0	C	0.106415	0.622942	0.669007
0	C	0.474013	0.41485	0.173845
0	C	0.880795	0.216735	0.783415
0	C	0.677433	0.820278	0.280573
0	C	0.208132	0.718949	0.687394
0	C	0.384963	0.31709	0.190462
0	C	0.627879	0.222539	0.69346
0	C	0.940089	0.812255	0.19226
0	C	0.459249	0.723119	0.777581
0	C	0.128896	0.308479	0.28025
0	C	0.800567	0.185738	0.596929
0	C	0.776917	0.84855	0.0940007
0	C	0.278871	0.687711	0.874517
0	C	0.298364	0.344151	0.378534
0	C	0.71998	0.0254766	0.596969
0	C	0.86323	0.00844883	0.0940781
0	C	0.353069	0.527213	0.874291
0	C	0.216044	0.504123	0.378471
0	C	0.613815	0.144175	0.47694
0	C	0.969208	0.889982	0.974033
0	C	0.456898	0.644837	0.995168
0	C	0.111732	0.387053	0.499632
0	C	0.23343	0.991214	0.449993
0	C	0.35787	0.0422224	0.949133
0	C	0.836972	0.490886	0.0218936
0	C	0.728282	0.54074	0.524194
0	C	0.437641	0.910102	0.463982
0	C	0.153862	0.123457	0.963336
0	C	0.63156	0.410322	0.00653602
0	C	0.933867	0.621227	0.508837
0	C	0.669231	0.143856	0.894276
0	C	0.905257	0.891919	0.392648
0	C	0.415785	0.642589	0.577231
0	C	0.160653	0.391295	0.080174
0	C	0.686204	0.178811	0.937852
0	C	0.888803	0.856737	0.436072
0	C	0.396799	0.677316	0.533604
0	C	0.180041	0.356682	0.0364035
0	C	0.746769	0.233795	0.935326
0	C	0.822309	0.802411	0.433575
0	C	0.334771	0.732129	0.536396
0	C	0.247828	0.302474	0.038493
0	C	0.770354	0.264295	0.977579
0	C	0.801217	0.771524	0.47569
0	C	0.307478	0.762568	0.494308
0	C	0.273459	0.272525	0.996037
0	C	0.731825	0.239295	0.0213304
0	C	0.847833	0.7955	0.519298
0	C	0.343793	0.737668	0.45039
0	C	0.229886	0.297227	0.952492
0	C	0.66709	0.185135	0.0243927
0	C	0.918236	0.848973	0.522325
0	C	0.410299	0.683745	0.447016
0	C	0.157799	0.350519	0.949859
0	C	0.644307	0.154695	0.982283
0	C	0.938835	0.879769	0.480342
0	C	0.436842	0.653339	0.489007
0	C	0.132769	0.380399	0.992186
0	C	0.408898	0.210402	0.437536
0	C	0.166282	0.824822	0.930313
0	C	0.659207	0.711243	0.0352482
0	C	0.90913	0.322131	0.542014
0	C	0.234158	0.210939	0.41138
0	C	0.340854	0.824734	0.904092
0	C	0.834687	0.712076	0.0610382
0	C	0.734244	0.322673	0.56818
0	C	0.0861447	0.237762	0.432182
0	C	0.488776	0.797948	0.924954
0	C	0.981214	0.739423	0.0400149
0	C	0.586427	0.294753	0.548383
0	C	0.922362	0.239982	0.407459
0	C	0.653303	0.796219	0.900543
0	C	0.146304	0.741439	0.0641796
0	C	0.422402	0.293806	0.573088
0	C	0.911448	0.215252	0.362529
0	C	0.665031	0.821492	0.855868
0	C	0.159974	0.715783	0.108662
0	C	0.411013	0.320911	0.616971
0	C	0.0563935	0.187818	0.341578
0	C	0.520193	0.848987	0.83494
0	C	0.016465	0.687782	0.129767
0	C	0.555905	0.349299	0.636959
0	C	0.219783	0.185463	0.366418
0	C	0.35588	0.850779	0.85939
0	C	0.851601	0.685878	0.105635
0	C	0.719439	0.350437	0.612118
0	C	0.686451	0.0738445	0.340871
0	C	0.90431	0.962788	0.838189
0	C	0.386085	0.571492	0.131081
0	C	0.181283	0.463439	0.63493
0	C	0.845293	0.0676016	0.309139
0	C	0.745898	0.969111	0.806305
0	C	0.228524	0.565178	0.16321
0	C	0.342284	0.467962	0.666122
0	C	0.822626	0.076831	0.259798
0	C	0.769826	0.960193	0.756959
0	C	0.252887	0.575228	0.212378
0	C	0.326218	0.452803	0.714547
0	C	0.967497	0.0690888	0.228602
0	C	0.625132	0.967274	0.72561
0	C	0.109715	0.567279	0.244068
0	C	0.474461	0.457845	0.745031
0	C	0.132734	0.0523619	0.24738
0	C	0.458839	0.983229	0.744217
0	C	0.944487	0.549554	0.225977
0	C	0.635626	0.47842	0.72658
0	C	0.158461	0.043776	0.296143
0	C	0.43226	0.991934	0.792924
0	C	0.917201	0.539982	0.177406
0	C	0.653867	0.493725	0.678805
0	C	0.0127879	0.0510985	0.327335
0	C	0.577571	0.985072	0.824325
0	C	0.0613111	0.547508	0.145704
0	C	0.505428	0.488516	0.648211
0	H	0.331108	0.162435	0.716561
0	H	0.236001	0.871655	0.216933
0	H	0.750911	0.659601	0.755173
0	H	0.832534	0.368661	0.257464
0	H	0.436047	0.100331	0.734683
0	H	0.131965	0.934461	0.233528
0	H	0.63899	0.59851	0.737564
0	H	0.936984	0.431355	0.240798
0	H	0.355789	0.158571	0.805679
0	H	0.202268	0.877209	0.305824
0	H	0.727028	0.65496	0.66619
0	H	0.859503	0.374837	0.168573
0	H	0.483956	0.214897	0.783304
0	H	0.075038	0.82085	0.283088
0	H	0.604577	0.712896	0.687848
0	H	0.988501	0.318201	0.190072
0	H	0.629008	0.0997187	0.814416
0	H	0.930403	0.93654	0.312698
0	H	0.447124	0.598982	0.65756
0	H	0.131608	0.43433	0.160996
0	H	0.770355	0.0898713	0.729354
0	H	0.798918	0.945825	0.225865
0	H	0.305191	0.591469	0.742294
0	H	0.271256	0.442126	0.247132
0	H	0.0825276	0.131122	0.71241
0	H	0.48699	0.905262	0.207619
0	H	0.996077	0.635292	0.75878
0	H	0.583165	0.40011	0.263549
0	H	0.97546	0.188886	0.685827
0	H	0.593972	0.846854	0.182114
0	H	0.107757	0.692103	0.785504
0	H	0.475052	0.34195	0.289128
0	H	0.931693	0.0662695	0.655505
0	H	0.644833	0.968983	0.151142
0	H	0.142624	0.569088	0.815472
0	H	0.43255	0.464001	0.321146
0	H	0.0576913	0.11753	0.624809
0	H	0.519706	0.917816	0.119988
0	H	0.0187495	0.620712	0.846182
0	H	0.556307	0.411796	0.351387
0	H	0.576805	0.0830841	0.662909
0	H	0.999328	0.951058	0.160589
0	H	0.499881	0.583821	0.809216
0	H	0.074045	0.447094	0.31296
0	H	0.453424	0.189256	0.61051
0	H	0.120324	0.843815	0.109359
0	H	0.625193	0.690071	0.861324
0	H	0.955114	0.339687	0.364193
0	H	0.313056	0.150678	0.649625
0	H	0.260235	0.882036	0.148808
0	H	0.765701	0.650825	0.822718
0	H	0.813096	0.378245	0.325565
0	H	0.27134	0.124525	0.563434
0	H	0.308221	0.907236	0.0625756
0	H	0.803131	0.624983	0.909177
0	H	0.77188	0.402339	0.41239
0	H	0.340379	0.0667401	0.598651
0	H	0.239911	0.965648	0.0971464
0	H	0.733922	0.567326	0.873869
0	H	0.833811	0.461098	0.377525
0	H	0.996405	0.0619287	0.550639
0	H	0.586474	0.972758	0.047046
0	H	0.0761249	0.563946	0.920084
0	H	0.494123	0.467408	0.42471
0	H	0.929847	0.130276	0.534851
0	H	0.652696	0.904467	0.0309109
0	H	0.144147	0.631985	0.936438
0	H	0.42465	0.399706	0.441641
0	H	0.9293	0.084895	0.460355
0	H	0.657333	0.951579	0.956833
0	H	0.140651	0.585668	0.0106602
0	H	0.425992	0.447905	0.515272
0	H	0.35947	0.0754209	0.495075
0	H	0.22605	0.957142	0.993414
0	H	0.711541	0.576124	0.977256
0	H	0.856127	0.454844	0.480258
0	H	0.388968	0.985215	0.539173
0	H	0.200255	0.0472374	0.0379409
0	H	0.683987	0.486437	0.932312
0	H	0.882366	0.544255	0.435037
0	H	0.618345	0.980316	0.521319
0	H	0.971366	0.0533438	0.0196992
0	H	0.453938	0.481212	0.949565
0	H	0.112091	0.550116	0.452502
0	H	0.503819	0.981546	0.38633
0	H	0.091742	0.0526967	0.884725
0	H	0.565178	0.481205	0.0849071
0	H	0.997893	0.551223	0.587723
0	H	0.688548	0.97424	0.425411
0	H	0.904794	0.0608255	0.923024
0	H	0.381096	0.474196	0.0455576
0	H	0.183349	0.558108	0.548719
0	H	0.461207	0.0802681	0.408013
0	H	0.12718	0.953775	0.905849
0	H	0.609167	0.58009	0.0636614
0	H	0.956877	0.45219	0.567306
0	H	0.98707	0.129383	0.840378
0	H	0.570804	0.909202	0.335866
0	H	0.097188	0.631125	0.630488
0	H	0.490627	0.406239	0.135566
0	H	0.942188	0.0753226	0.799233
0	H	0.62102	0.962297	0.294145
0	H	0.126897	0.578272	0.673806
0	H	0.44375	0.459091	0.177805
0	H	0.102754	0.126609	0.785091
0	H	0.459695	0.911399	0.279886
0	H	0.974483	0.632905	0.684614
0	H	0.604875	0.407763	0.191102
0	H	0.0058935	0.225026	0.763994
0	H	0.553305	0.812283	0.260623
0	H	0.0843092	0.728818	0.706844
0	H	0.510823	0.30867	0.209483
0	H	0.777671	0.244909	0.768955
0	H	0.780316	0.79144	0.266983
0	H	0.314669	0.746163	0.701492
0	H	0.282855	0.288334	0.204623
0	H	0.901441	0.228424	0.820992
0	H	0.653528	0.809235	0.318177
0	H	0.188405	0.730407	0.649736
0	H	0.404722	0.306334	0.152631
0	H	0.746235	0.234751	0.672149
0	H	0.824434	0.80023	0.169867
0	H	0.343137	0.736406	0.799276
0	H	0.24346	0.296024	0.302861
0	H	0.508207	0.237385	0.674437
0	H	0.061892	0.796643	0.174687
0	H	0.581338	0.737236	0.795974
0	H	0.00608148	0.292913	0.297367
0	H	0.634739	0.245188	0.727588
0	H	0.927292	0.790182	0.226549
0	H	0.452732	0.745603	0.743368
0	H	0.142416	0.28664	0.245875
0	H	0.678427	0.202372	0.579836
0	H	0.899899	0.831479	0.0776212
0	H	0.401006	0.703747	0.892079
0	H	0.176678	0.327916	0.396183
0	H	0.843788	0.215742	0.624276
0	H	0.731145	0.818861	0.1213
0	H	0.239305	0.717918	0.846953
0	H	0.33839	0.314025	0.350975
0	H	0.90584	0.18539	0.569242
0	H	0.673764	0.849062	0.0657513
0	H	0.171871	0.687852	0.901739
0	H	0.405342	0.344241	0.405758
0	H	0.592028	0.0172649	0.615159
0	H	0.990103	0.0160431	0.112952
0	H	0.480109	0.518989	0.855684
0	H	0.0878766	0.512155	0.360358
0	H	0.736605	0.994541	0.568158
0	H	0.850208	0.0394528	0.0651591
0	H	0.337022	0.496038	0.902983
0	H	0.233118	0.535337	0.407118
0	H	0.828459	0.0181661	0.622927
0	H	0.753227	0.0164451	0.119419
0	H	0.243756	0.520152	0.848544
0	H	0.323945	0.511491	0.352341
0	H	0.720379	0.17317	0.466056
0	H	0.86154	0.861583	0.962691
0	H	0.349373	0.673689	0.00572024
0	H	0.218699	0.358479	0.511086
0	H	0.136418	0.974418	0.47617
0	H	0.454077	0.0588305	0.975643
0	H	0.934274	0.474789	0.995468
0	H	0.631719	0.55672	0.49753
0	H	0.216838	0.0364145	0.450617
0	H	0.373778	0.996979	0.949589
0	H	0.853849	0.536079	0.0222758
0	H	0.711765	0.495531	0.524749
0	H	0.190411	0.976669	0.414578
0	H	0.402134	0.0569297	0.913867
0	H	0.879178	0.475342	0.0570771
0	H	0.685567	0.5565	0.559256
0	H	0.40101	0.891282	0.429563
0	H	0.195021	0.142689	0.929447
0	H	0.667278	0.390795	0.0407477
0	H	0.89506	0.640913	0.542712
0	H	0.573082	0.895613	0.473076
0	H	0.0173928	0.13792	0.971318
0	H	0.495965	0.396258	0.997074
0	H	0.0700605	0.63544	0.500236
0	H	0.345509	0.893326	0.49093
0	H	0.242369	0.139764	0.991333
0	H	0.723493	0.393862	0.979385
0	H	0.843979	0.637517	0.481166
0	H	0.776061	0.252493	0.900443
0	H	0.7864	0.784465	0.398837
0	H	0.307157	0.750794	0.571376
0	H	0.281224	0.283959	0.0731995
0	H	0.819288	0.307021	0.975724
0	H	0.74786	0.729329	0.473878
0	H	0.257283	0.80513	0.496413
0	H	0.328026	0.230446	0.997525
0	H	0.636101	0.166153	0.0589456
0	H	0.955266	0.867152	0.55677
0	H	0.439762	0.664876	0.412328
0	H	0.122918	0.369253	0.915465
0	H	0.594058	0.111528	0.984006
0	H	0.993899	0.922357	0.482117
0	H	0.488313	0.610374	0.487077
0	H	0.0765147	0.422853	0.990722
0	H	0.0982112	0.257734	0.467452
0	H	0.476065	0.777904	0.960173
0	H	0.967268	0.759658	0.0049227
0	H	0.598471	0.273131	0.513823
0	H	0.806315	0.26137	0.423477
0	H	0.76933	0.774944	0.916656
0	H	0.261135	0.763215	0.0479413
0	H	0.306442	0.271675	0.557827
0	H	0.0448361	0.16817	0.306453
0	H	0.533118	0.869264	0.800148
0	H	0.0308062	0.667122	0.16437
0	H	0.544079	0.370696	0.671302
0	H	0.335275	0.16324	0.350846
0	H	0.240875	0.873215	0.843727
0	H	0.737273	0.663246	0.121376
0	H	0.834401	0.373596	0.626904
0	H	0.690296	0.0895701	0.246054
0	H	0.90312	0.948137	0.743361
0	H	0.38516	0.588712	0.225535
0	H	0.196647	0.437465	0.728192
0	H	0.949904	0.0759763	0.190252
0	H	0.643698	0.960405	0.687304
0	H	0.128821	0.574787	0.282278
0	H	0.462619	0.445853	0.782591
0	H	0.290504	0.0321728	0.310597
0	H	0.299524	0.00320709	0.807131
0	H	0.785183	0.527479	0.163505
0	H	0.782641	0.508794	0.664662
0	H	0.028378	0.0433772	0.365826
0	H	0.560724	0.992592	0.862807
0	H	0.0446874	0.53884	0.107373
0	H	0.515748	0.50097	0.610463
0	H	0.858509	0.992806	0.45381
0	H	0.732964	0.0433543	0.951774
0	H	0.21357	0.493423	0.0168833
0	H	0.352577	0.540133	0.51951
