#******************************************
#
# CIF file created by Zeo++
# Zeo++ is an open source package to
# analyze microporous materials
#
#*******************************************

_cell_length_a		7.80622(0)
_cell_length_b		18.3091(0)
_cell_length_c		47.7893(0)
_cell_angle_alpha		90(0)
_cell_angle_beta		90(0)
_cell_angle_gamma		90(0)

_symmetry_space_group_name_H-M		'P1'
_symmetry_Int_Tables_number		1
_symmetry_cell_setting		Monoclinic

loop_
_symmetry_equiv_pos_as_xyz
'+x,+y,+z'

loop_
_atom_site_label
_atom_site_type_symbol
_atom_site_fract_x
_atom_site_fract_y
_atom_site_fract_z
0	C	0.999306	0.231445	0.929797
0	C	0.0403155	0.82538	0.422527
0	C	0.0477851	0.234983	0.606319
0	C	0.988498	0.821716	0.101126
0	C	0.493674	0.73256	0.929106
0	C	0.541664	0.327381	0.423058
0	C	0.548656	0.727382	0.607655
0	C	0.483336	0.320404	0.100975
0	C	0.170111	0.190657	0.931864
0	C	0.868918	0.865961	0.424019
0	C	0.875838	0.194729	0.605184
0	C	0.158197	0.863313	0.0988915
0	C	0.663363	0.690881	0.931293
0	C	0.372852	0.370152	0.423723
0	C	0.379148	0.685155	0.606812
0	C	0.653479	0.36177	0.0987953
0	C	0.143263	0.108272	0.934944
0	C	0.893703	0.948266	0.427844
0	C	0.900165	0.111892	0.603488
0	C	0.129139	0.945599	0.0958431
0	C	0.633883	0.608606	0.934292
0	C	0.402879	0.451924	0.428186
0	C	0.408213	0.603106	0.603058
0	C	0.625139	0.444127	0.095882
0	C	0.0286156	0.0882797	0.960501
0	C	0.0072751	0.967386	0.4536
0	C	0.0151235	0.0881264	0.578463
0	C	0.0138277	0.965324	0.0704933
0	C	0.518459	0.588879	0.959669
0	C	0.512013	0.468435	0.454789
0	C	0.520645	0.58499	0.576893
0	C	0.509694	0.46433	0.0705699
0	C	0.853448	0.132802	0.957796
0	C	0.183266	0.923204	0.451116
0	C	0.191621	0.132441	0.580394
0	C	0.838751	0.919984	0.0734763
0	C	0.343585	0.634484	0.956775
0	C	0.685172	0.422529	0.452931
0	C	0.692953	0.630829	0.578516
0	C	0.33451	0.418985	0.0734015
0	C	0.735576	0.113922	0.982672
0	C	0.299864	0.941974	0.476138
0	C	0.310109	0.10917	0.556205
0	C	0.718577	0.93869	0.0489178
0	C	0.223752	0.615742	0.981375
0	C	0.799694	0.439449	0.478415
0	C	0.807666	0.613136	0.553118
0	C	0.214867	0.438056	0.0488122
0	C	0.572915	0.160183	0.982414
0	C	0.463093	0.896104	0.476143
0	C	0.472185	0.155599	0.554566
0	C	0.556574	0.892025	0.0494229
0	C	0.0622553	0.662744	0.981083
0	C	0.957325	0.390148	0.479433
0	C	0.966462	0.661754	0.552091
0	C	0.0527263	0.391435	0.049034
0	C	0.61235	0.242647	0.981919
0	C	0.42464	0.813609	0.475643
0	C	0.432854	0.237989	0.553185
0	C	0.597525	0.809695	0.0496367
0	C	0.103862	0.74502	0.980865
0	C	0.90737	0.308788	0.479101
0	C	0.918496	0.74333	0.552174
0	C	0.0932289	0.309046	0.0492017
0	C	0.715235	0.26171	0.954745
0	C	0.317936	0.792979	0.449045
0	C	0.32913	0.262065	0.57968
0	C	0.703458	0.790544	0.0765031
0	C	0.209734	0.764247	0.953999
0	C	0.809912	0.290419	0.451334
0	C	0.818925	0.762849	0.579629
0	C	0.198448	0.289703	0.0761425
0	C	0.885412	0.21649	0.955437
0	C	0.149907	0.83961	0.448771
0	C	0.159824	0.216322	0.580748
0	C	0.872724	0.836432	0.0756648
0	C	0.378385	0.717927	0.954637
0	C	0.646023	0.339435	0.450004
0	C	0.654629	0.71408	0.58097
0	C	0.368029	0.335409	0.0754774
0	C	0.755923	0.34471	0.953289
0	C	0.271231	0.710353	0.449352
0	C	0.286484	0.344919	0.57842
0	C	0.74631	0.70772	0.0775483
0	C	0.254603	0.846912	0.953212
0	C	0.757963	0.208456	0.450567
0	C	0.766636	0.844844	0.579654
0	C	0.240689	0.206837	0.0772146
0	C	0.867542	0.374835	0.97692
0	C	0.172515	0.682626	0.474981
0	C	0.178811	0.371139	0.55354
0	C	0.856497	0.678765	0.0535189
0	C	0.367485	0.8745	0.977149
0	C	0.649737	0.180927	0.475163
0	C	0.657181	0.870387	0.554891
0	C	0.354745	0.17794	0.0536637
0	C	0.922803	0.451501	0.970247
0	C	0.12054	0.604373	0.470313
0	C	0.124957	0.449056	0.558566
0	C	0.914355	0.602207	0.0597709
0	C	0.433446	0.949724	0.970631
0	C	0.608832	0.101433	0.470834
0	C	0.600763	0.947912	0.559726
0	C	0.412384	0.101531	0.0602586
0	C	0.9894	0.00990745	0.959485
0	C	0.0467864	0.0458112	0.45329
0	C	0.0527528	0.00985516	0.580803
0	C	0.970918	0.0433037	0.0709799
0	C	0.475105	0.510969	0.959042
0	C	0.554721	0.546611	0.455095
0	C	0.56093	0.506571	0.57782
0	C	0.466853	0.542307	0.071365
0	C	0.122057	0.107565	0.987923
0	C	0.912407	0.946877	0.48076
0	C	0.923016	0.104287	0.55061
0	C	0.104888	0.945738	0.0428382
0	C	0.610512	0.60805	0.987265
0	C	0.409332	0.447491	0.481151
0	C	0.419298	0.603575	0.550113
0	C	0.601422	0.445489	0.0429058
0	C	0.445144	0.285922	0.984714
0	C	0.593356	0.771009	0.477811
0	C	0.60068	0.280468	0.549413
0	C	0.431024	0.7658	0.0471153
0	C	0.93746	0.788959	0.983435
0	C	0.0667771	0.261414	0.483742
0	C	0.0796789	0.78981	0.547805
0	C	0.926574	0.26532	0.0465145
0	C	0.608115	0.244677	0.928546
0	C	0.424042	0.805634	0.422351
0	C	0.436227	0.251063	0.60637
0	C	0.597999	0.806595	0.102968
0	C	0.103631	0.749173	0.92753
0	C	0.926397	0.302826	0.425799
0	C	0.933718	0.751786	0.605447
0	C	0.0922294	0.305729	0.10253
0	O	0.958075	0.494835	0.993197
0	O	0.0797391	0.564163	0.493849
0	O	0.0838005	0.490206	0.535342
0	O	0.953789	0.560332	0.036589
0	O	0.463075	0.993685	0.993619
0	O	0.572989	0.0611818	0.494562
0	O	0.567769	0.989176	0.536182
0	O	0.451739	0.0588847	0.0372792
0	O	0.941056	0.480449	0.94776
0	O	0.110795	0.571593	0.448493
0	O	0.114579	0.480825	0.580617
0	O	0.931643	0.572225	0.0820718
0	O	0.464378	0.976888	0.948191
0	O	0.60395	0.067721	0.449175
0	O	0.5809	0.979249	0.58171
0	O	0.429535	0.0722777	0.0827041
0	O	0.769379	0.113818	0.932327
0	O	0.275248	0.944683	0.426518
0	O	0.27314	0.116886	0.606565
0	O	0.75833	0.938487	0.099293
0	O	0.262853	0.616329	0.93097
0	O	0.78362	0.444349	0.429027
0	O	0.791474	0.609848	0.602552
0	O	0.253791	0.43725	0.0992205
0	C	0.0373058	0.406312	0.858616
0	C	0.92731	0.638142	0.350855
0	C	0.931717	0.415381	0.680249
0	C	0.0341974	0.64639	0.172503
0	C	0.560359	0.905342	0.860141
0	C	0.414179	0.143636	0.349781
0	C	0.456963	0.901947	0.683241
0	C	0.534971	0.145985	0.172616
0	C	0.111455	0.347983	0.87029
0	C	0.849212	0.696336	0.361917
0	C	0.853535	0.357235	0.669174
0	C	0.108278	0.70485	0.160915
0	C	0.639345	0.846267	0.870315
0	C	0.336606	0.20195	0.360854
0	C	0.384813	0.843542	0.671294
0	C	0.608981	0.204682	0.161187
0	C	0.290624	0.347625	0.881503
0	C	0.66648	0.696622	0.371387
0	C	0.670636	0.356876	0.659792
0	C	0.287292	0.705399	0.149637
0	C	0.822435	0.845273	0.879623
0	C	0.154732	0.202126	0.370742
0	C	0.208514	0.843303	0.658964
0	C	0.788367	0.205649	0.150072
0	C	0.400469	0.414503	0.872602
0	C	0.560264	0.629466	0.361643
0	C	0.5645	0.424151	0.669438
0	C	0.396938	0.638196	0.158217
0	C	0.92733	0.913771	0.870951
0	C	0.0479655	0.135164	0.360983
0	C	0.0977268	0.910908	0.666685
0	C	0.898459	0.138605	0.158707
0	C	0.282978	0.484623	0.874561
0	C	0.677296	0.559395	0.364151
0	C	0.681728	0.494157	0.667012
0	C	0.279087	0.568232	0.156183
0	C	0.809174	0.983278	0.874477
0	C	0.164721	0.0650326	0.363547
0	C	0.216357	0.980802	0.665476
0	C	0.78128	0.0684629	0.156451
0	C	0.381995	0.556207	0.870339
0	C	0.580467	0.487756	0.358756
0	C	0.585098	0.565831	0.672404
0	C	0.378041	0.496546	0.160157
0	C	0.906416	0.0551526	0.869972
0	C	0.067654	0.993401	0.358396
0	C	0.117148	0.0524867	0.669195
0	C	0.880915	0.996963	0.160428
0	C	0.263918	0.622531	0.867962
0	C	0.700104	0.42161	0.358323
0	C	0.704799	0.631964	0.672758
0	C	0.259736	0.430276	0.162291
0	C	0.788794	0.121831	0.868699
0	C	0.186823	0.927098	0.358181
0	C	0.236063	0.118549	0.671504
0	C	0.763464	0.93038	0.162424
0	C	0.126777	0.613122	0.845211
0	C	0.847067	0.431095	0.337143
0	C	0.852132	0.622566	0.69387
0	C	0.122635	0.439132	0.185084
0	C	0.641257	0.112948	0.84765
0	C	0.335428	0.935874	0.337268
0	C	0.370284	0.109677	0.694796
0	C	0.624912	0.938935	0.185015
0	C	0.0125522	0.544585	0.850969
0	C	0.958208	0.49939	0.344438
0	C	0.962768	0.554089	0.686623
0	C	0.0088467	0.508008	0.179708
0	C	0.530055	0.0445618	0.854767
0	C	0.445759	0.0046422	0.34424
0	C	0.483799	0.0404714	0.689863
0	C	0.51012	0.00736904	0.179399
0	C	0.132153	0.47659	0.853547
0	C	0.836662	0.567353	0.344948
0	C	0.841131	0.486163	0.686191
0	C	0.128801	0.575937	0.17732
0	C	0.650964	0.976526	0.854984
0	C	0.323894	0.0725053	0.344279
0	C	0.362832	0.972837	0.687354
0	C	0.629723	0.0755534	0.177393
0	C	0.88786	0.532883	0.825873
0	C	0.0992546	0.512275	0.321785
0	C	0.103804	0.54124	0.709274
0	C	0.884726	0.519145	0.20492
0	C	0.388384	0.0326762	0.832149
0	C	0.587368	0.0168013	0.321606
0	C	0.606679	0.0293298	0.715263
0	C	0.382746	0.017991	0.204242
0	C	0.97736	0.525514	0.797436
0	C	0.0577708	0.495514	0.291296
0	C	0.061609	0.557732	0.739756
0	C	0.974392	0.525426	0.233383
0	C	0.430729	0.0500127	0.801727
0	C	0.54708	0.998231	0.291229
0	C	0.517311	0.025365	0.743805
0	C	0.469051	0.0244675	0.232968
0	C	0.852496	0.510071	0.774302
0	C	0.472595	0.4308	0.239055
0	C	0.477563	0.622359	0.791639
0	C	0.850325	0.542867	0.256437
0	C	0.00713831	0.132469	0.763968
0	C	0.966412	0.925488	0.242399
0	C	0.63968	0.00478951	0.766734
0	C	0.343425	0.0441765	0.255524
0	C	0.552957	0.421911	0.892688
0	C	0.403344	0.622276	0.380863
0	C	0.408273	0.431404	0.650061
0	C	0.548602	0.63084	0.137958
0	C	0.084197	0.919991	0.890232
0	C	0.890966	0.128025	0.380175
0	C	0.951485	0.918232	0.645388
0	C	0.0508906	0.131653	0.138589
0	C	0.468664	0.403523	0.842727
0	C	0.500391	0.640217	0.33129
0	C	0.503911	0.413437	0.699749
0	C	0.466485	0.648481	0.188044
0	C	0.987321	0.906088	0.84047
0	C	0.988029	0.145922	0.330639
0	C	0.0204908	0.900965	0.696042
0	C	0.96672	0.148902	0.188612
0	C	0.0228829	0.683724	0.842194
0	C	0.950731	0.360136	0.335386
0	C	0.956475	0.693411	0.695406
0	C	0.0178692	0.368606	0.187582
0	C	0.537261	0.18403	0.846562
0	C	0.44041	0.865088	0.336519
0	C	0.476078	0.179944	0.697313
0	C	0.521757	0.867978	0.18748
0	C	0.904449	0.554328	0.877508
0	C	0.0505002	0.4898	0.37257
0	C	0.0550799	0.563516	0.658477
0	C	0.900085	0.499152	0.153193
0	C	0.438897	0.0532918	0.88305
0	C	0.537694	0.996194	0.372468
0	C	0.595336	0.0486154	0.663582
0	C	0.403714	0.998496	0.152621
0	O	0.902496	0.519873	0.746818
0	O	0.340755	0.453667	0.246911
0	O	0.34585	0.600557	0.783315
0	O	0.89973	0.533893	0.283987
0	O	0.147739	0.110373	0.765773
0	O	0.829788	0.949161	0.247076
0	O	0.588247	0.011394	0.79434
0	O	0.390654	0.0370188	0.283278
0	O	0.707011	0.487647	0.776803
0	O	0.601949	0.406541	0.230961
0	O	0.60691	0.645556	0.800198
0	O	0.705774	0.566271	0.253773
0	O	0.868199	0.155723	0.762156
0	O	0.101077	0.90059	0.23756
0	O	0.783611	0.980792	0.764077
0	O	0.199805	0.0681202	0.252296
0	O	0.227712	0.48593	0.903625
0	O	0.722151	0.556054	0.393678
0	O	0.727116	0.497629	0.637507
0	O	0.223018	0.567342	0.127151
0	O	0.763094	0.982996	0.90406
0	O	0.210688	0.0621899	0.393076
0	O	0.278726	0.983564	0.636838
0	O	0.726587	0.0679757	0.127342
0	H	0.1053	0.473723	0.905668
0	H	0.837575	0.575716	0.397114
0	H	0.841024	0.476445	0.634085
0	H	0.100694	0.579741	0.125246
0	H	0.645195	0.9652	0.907029
0	H	0.32582	0.0824084	0.396269
0	H	0.393929	0.962584	0.635185
0	H	0.603663	0.0792743	0.12536
0	H	0.774684	0.0606046	0.927318
0	H	0.215179	0.98188	0.414728
0	H	0.270114	0.0641187	0.611926
0	H	0.753754	0.992045	0.103434
0	H	0.254467	0.562714	0.927061
0	H	0.720352	0.476725	0.415702
0	H	0.72853	0.577497	0.615947
0	H	0.24805	0.490816	0.10332
0	H	0.95355	0.470156	0.0123016
0	H	0.0781762	0.590229	0.512538
0	H	0.0821163	0.465	0.516477
0	H	0.951703	0.586042	0.0176734
0	H	0.45208	0.969529	0.0127794
0	H	0.569568	0.0878096	0.513194
0	H	0.571117	0.963774	0.5173
0	H	0.452315	0.0842731	0.0182725
0	H	0.929714	0.213242	0.910733
0	H	0.112804	0.8438	0.4038
0	H	0.117938	0.218752	0.625575
0	H	0.919617	0.839428	0.120316
0	H	0.424438	0.714889	0.909943
0	H	0.619536	0.345396	0.404869
0	H	0.624798	0.709804	0.626093
0	H	0.414325	0.338134	0.120153
0	H	0.0220339	0.290695	0.927314
0	H	0.0180502	0.76614	0.419785
0	H	0.026648	0.294546	0.607768
0	H	0.0128974	0.762555	0.10347
0	H	0.518261	0.791703	0.926709
0	H	0.515866	0.268566	0.41989
0	H	0.52355	0.786371	0.610485
0	H	0.507348	0.261212	0.103306
0	H	0.246832	0.212297	0.949715
0	H	0.789238	0.843474	0.441375
0	H	0.798873	0.214465	0.587035
0	H	0.234624	0.842041	0.0809409
0	H	0.740108	0.712091	0.949209
0	H	0.28795	0.348571	0.440376
0	H	0.29643	0.706227	0.589749
0	H	0.729718	0.340575	0.0808089
0	H	0.247725	0.201449	0.912899
0	H	0.794385	0.855827	0.404687
0	H	0.799168	0.208178	0.62399
0	H	0.237032	0.852818	0.117736
0	H	0.742018	0.701382	0.91242
0	H	0.302255	0.361729	0.40388
0	H	0.30654	0.694774	0.626382
0	H	0.732262	0.350977	0.117626
0	H	0.268041	0.0797607	0.936856
0	H	0.767629	0.975853	0.430223
0	H	0.774509	0.0840185	0.601804
0	H	0.253365	0.974637	0.0939127
0	H	0.75786	0.579399	0.936191
0	H	0.278494	0.481114	0.429949
0	H	0.283689	0.574155	0.601092
0	H	0.749503	0.473043	0.0939735
0	H	0.0813095	0.0866436	0.915538
0	H	0.952218	0.971869	0.408559
0	H	0.959795	0.0919402	0.623315
0	H	0.0672594	0.96676	0.115326
0	H	0.571619	0.587635	0.914811
0	H	0.468178	0.47545	0.409473
0	H	0.47105	0.580319	0.622127
0	H	0.563497	0.465154	0.115406
0	H	0.805188	0.120488	0.00264579
0	H	0.229146	0.935359	0.495999
0	H	0.239579	0.110988	0.536155
0	H	0.786969	0.93245	0.0288025
0	H	0.292651	0.621657	0.00145795
0	H	0.724859	0.435076	0.497963
0	H	0.733366	0.617604	0.533522
0	H	0.283814	0.432102	0.0287351
0	H	0.69978	0.0551429	0.98134
0	H	0.336023	0.00072071	0.474745
0	H	0.347653	0.0510264	0.559324
0	H	0.681959	0.997362	0.0503344
0	H	0.186272	0.557178	0.979879
0	H	0.842744	0.497397	0.476874
0	H	0.849573	0.555081	0.554727
0	H	0.178183	0.496718	0.0503639
0	H	0.492012	0.146086	0.000805781
0	H	0.542212	0.910619	0.494761
0	H	0.549332	0.138279	0.536064
0	H	0.473796	0.906323	0.0312735
0	H	0.980453	0.648541	0.999365
0	H	0.0348017	0.403414	0.498316
0	H	0.0439028	0.647806	0.533252
0	H	0.971058	0.406033	0.0307906
0	H	0.496068	0.14498	0.963616
0	H	0.541015	0.911766	0.457546
0	H	0.553168	0.143479	0.573187
0	H	0.480958	0.906696	0.0684098
0	H	0.985534	0.648348	0.962199
0	H	0.0403153	0.403084	0.46114
0	H	0.0488705	0.648707	0.570432
0	H	0.976206	0.405891	0.0679389
0	H	0.69585	0.25601	0.000318238
0	H	0.344897	0.800136	0.49437
0	H	0.350551	0.248452	0.534482
0	H	0.679284	0.796925	0.0310446
0	H	0.185796	0.757676	0.999464
0	H	0.817069	0.298589	0.496894
0	H	0.830167	0.753631	0.534174
0	H	0.175329	0.29623	0.030674
0	H	0.9573	0.233161	0.974659
0	H	0.0738799	0.823464	0.467632
0	H	0.0856327	0.2296	0.561371
0	H	0.943908	0.82024	0.0563109
0	H	0.450347	0.733872	0.973959
0	H	0.563946	0.324082	0.468284
0	H	0.573703	0.728926	0.56247
0	H	0.43949	0.319318	0.0561421
0	H	0.633542	0.375658	0.952686
0	H	0.390575	0.677838	0.446999
0	H	0.408356	0.376528	0.578857
0	H	0.62474	0.676182	0.078318
0	H	0.133804	0.878993	0.952742
0	H	0.875827	0.174738	0.448958
0	H	0.884285	0.878845	0.580768
0	H	0.118802	0.175451	0.0774266
0	H	0.819218	0.356519	0.932907
0	H	0.195179	0.697803	0.430246
0	H	0.219482	0.360344	0.598124
0	H	0.811738	0.695642	0.0977213
0	H	0.319106	0.859162	0.932968
0	H	0.687206	0.19768	0.430779
0	H	0.696406	0.856751	0.599405
0	H	0.302598	0.194428	0.097651
0	H	0.983356	0.340012	0.979775
0	H	0.0562965	0.716574	0.478539
0	H	0.0630418	0.336261	0.551081
0	H	0.970924	0.714312	0.0504763
0	H	0.478399	0.836959	0.980282
0	H	0.528669	0.212742	0.476638
0	H	0.542422	0.834754	0.552691
0	H	0.469447	0.213581	0.0510465
0	H	0.796933	0.372404	0.997079
0	H	0.251979	0.688211	0.494103
0	H	0.252281	0.365687	0.533793
0	H	0.783736	0.68129	0.0335766
0	H	0.29469	0.873571	0.997094
0	H	0.717768	0.190017	0.495248
0	H	0.729522	0.86479	0.535029
0	H	0.284756	0.180183	0.0334586
0	H	0.0286719	0.973288	0.975587
0	H	0.0216992	0.0800593	0.470862
0	H	0.024295	0.972464	0.564376
0	H	0.964693	0.0749555	0.0522929
0	H	0.47639	0.478108	0.977447
0	H	0.506624	0.582509	0.470777
0	H	0.486408	0.467239	0.566695
0	H	0.4659	0.575142	0.0529628
0	H	0.920446	0.987215	0.941952
0	H	0.103357	0.0707828	0.435153
0	H	0.109476	0.987727	0.599563
0	H	0.940516	0.0705395	0.0903915
0	H	0.437762	0.484757	0.939721
0	H	0.635031	0.569547	0.439119
0	H	0.662402	0.486533	0.590898
0	H	0.431772	0.568497	0.0907903
0	H	0.152661	0.165861	0.988903
0	H	0.881175	0.888613	0.481364
0	H	0.891844	0.16231	0.54855
0	H	0.139914	0.887876	0.0422059
0	H	0.645948	0.665854	0.987969
0	H	0.379968	0.389026	0.481503
0	H	0.392546	0.662152	0.548717
0	H	0.636932	0.387712	0.0420532
0	H	0.0443878	0.0937406	0.0062975
0	H	0.988476	0.959931	0.499369
0	H	0.00162541	0.0883904	0.532607
0	H	0.0238071	0.957461	0.024654
0	H	0.530154	0.596183	0.00551851
0	H	0.479393	0.461046	0.500321
0	H	0.48908	0.587132	0.531253
0	H	0.520772	0.457528	0.0247037
0	H	0.24272	0.0768013	0.989401
0	H	0.791267	0.977398	0.482131
0	H	0.802402	0.0734226	0.549479
0	H	0.22287	0.978037	0.0407529
0	H	0.728464	0.575635	0.989192
0	H	0.286929	0.477288	0.481559
0	H	0.295495	0.574865	0.55008
0	H	0.719262	0.477941	0.0409725
0	H	0.389546	0.280605	0.00565051
0	H	0.651126	0.776629	0.49855
0	H	0.656132	0.271678	0.52862
0	H	0.374656	0.770294	0.0261783
0	H	0.881469	0.784331	0.00437646
0	H	0.124715	0.271959	0.504204
0	H	0.136549	0.780098	0.527208
0	H	0.870133	0.270038	0.0255466
0	H	0.464815	0.344312	0.980746
0	H	0.575014	0.712546	0.473865
0	H	0.581988	0.339447	0.551972
0	H	0.451784	0.707599	0.0513505
0	H	0.958109	0.8472	0.979253
0	H	0.0364056	0.203018	0.482808
0	H	0.0516515	0.848347	0.549317
0	H	0.947018	0.207018	0.0506194
0	H	0.348494	0.266741	0.969477
0	H	0.687634	0.790771	0.46229
0	H	0.697156	0.263499	0.565062
0	H	0.334306	0.785096	0.0623158
0	H	0.840574	0.769771	0.968253
0	H	0.164618	0.271913	0.467745
0	H	0.177622	0.777608	0.563636
0	H	0.829651	0.284454	0.0617011
0	H	0.493806	0.278873	0.927124
0	H	0.541788	0.773333	0.422132
0	H	0.552059	0.284569	0.606475
0	H	0.483601	0.772411	0.104371
0	H	0.989564	0.783719	0.926265
0	H	0.0462781	0.2723	0.427357
0	H	0.0561248	0.780269	0.603404
0	H	0.977564	0.271693	0.103791
0	H	0.682731	0.25149	0.909307
0	H	0.351658	0.792386	0.403413
0	H	0.362738	0.263777	0.625264
0	H	0.67371	0.79895	0.122041
0	H	0.178891	0.757456	0.908441
0	H	0.863698	0.287323	0.406216
0	H	0.872442	0.770962	0.624718
0	H	0.16721	0.297751	0.121659
0	H	0.567221	0.186817	0.928621
0	H	0.45893	0.863947	0.420512
0	H	0.473939	0.19315	0.60848
0	H	0.557237	0.864443	0.103248
0	H	0.0623935	0.69145	0.926959
0	H	0.958219	0.361465	0.423753
0	H	0.96084	0.693055	0.608549
0	H	0.0519223	0.363614	0.102881
0	H	0.905082	0.404966	0.85126
0	H	0.0617154	0.639986	0.344517
0	H	0.0661808	0.41353	0.686555
0	H	0.902185	0.64769	0.179951
0	H	0.425793	0.90395	0.853862
0	H	0.548065	0.14558	0.343113
0	H	0.587333	0.900293	0.691484
0	H	0.402635	0.147032	0.179937
0	H	0.042295	0.296693	0.872935
0	H	0.917072	0.74766	0.365216
0	H	0.921452	0.305954	0.665792
0	H	0.0391736	0.756191	0.158416
0	H	0.572108	0.794492	0.872857
0	H	0.404444	0.253438	0.363838
0	H	0.453879	0.791989	0.669278
0	H	0.539484	0.25597	0.158734
0	H	0.356876	0.296525	0.87535
0	H	0.602211	0.747431	0.364376
0	H	0.606542	0.306169	0.666951
0	H	0.353766	0.756324	0.156007
0	H	0.886897	0.795358	0.871585
0	H	0.0898326	0.253277	0.36408
0	H	0.139561	0.792704	0.665121
0	H	0.854154	0.256645	0.156544
0	H	0.282602	0.346587	0.904767
0	H	0.665259	0.698784	0.394686
0	H	0.668968	0.354322	0.636502
0	H	0.279005	0.707217	0.126381
0	H	0.824775	0.840288	0.902853
0	H	0.155326	0.203761	0.394043
0	H	0.221411	0.840464	0.63578
0	H	0.780935	0.207562	0.126807
0	H	0.465947	0.551707	0.851812
0	H	0.508566	0.49187	0.338892
0	H	0.5134	0.561786	0.692289
0	H	0.462126	0.500604	0.178682
0	H	0.984171	0.0512014	0.850679
0	H	0.995887	0.997163	0.338515
0	H	0.0321186	0.0486302	0.687614
0	H	0.964282	0.00112891	0.17904
0	H	0.468476	0.564954	0.888802
0	H	0.483642	0.479983	0.375731
0	H	0.488102	0.573585	0.655452
0	H	0.464486	0.488241	0.141658
0	H	0.998375	0.0630719	0.887718
0	H	0.97082	0.985931	0.375392
0	H	0.0317064	0.060796	0.650596
0	H	0.967963	0.988982	0.141996
0	H	0.341118	0.672007	0.863835
0	H	0.625899	0.37188	0.353242
0	H	0.630626	0.681676	0.677856
0	H	0.336733	0.380625	0.166203
0	H	0.865334	0.170695	0.863341
0	H	0.112361	0.877477	0.353029
0	H	0.159301	0.168378	0.675153
0	H	0.841128	0.881016	0.166533
0	H	0.201628	0.632441	0.888625
0	H	0.753212	0.412698	0.379725
0	H	0.757533	0.640852	0.651334
0	H	0.197303	0.421033	0.141592
0	H	0.735818	0.13251	0.889995
0	H	0.238577	0.918154	0.379686
0	H	0.300923	0.127404	0.650975
0	H	0.702393	0.920866	0.141636
0	H	0.194106	0.60348	0.824818
0	H	0.788531	0.441519	0.316089
0	H	0.793855	0.612497	0.714968
0	H	0.19007	0.447844	0.205513
0	H	0.698522	0.103372	0.826465
0	H	0.278532	0.944893	0.316018
0	H	0.299897	0.101792	0.715003
0	H	0.69131	0.948063	0.20551
0	H	0.194414	0.470338	0.832296
0	H	0.786069	0.57207	0.322739
0	H	0.790628	0.481431	0.708403
0	H	0.191414	0.58163	0.198564
0	H	0.702777	0.972876	0.832789
0	H	0.273453	0.0762254	0.322037
0	H	0.296508	0.968103	0.708305
0	H	0.691113	0.080834	0.198751
0	H	0.79674	0.579456	0.825071
0	H	0.213195	0.478737	0.327279
0	H	0.217568	0.574948	0.703848
0	H	0.793042	0.472778	0.205547
0	H	0.275015	0.0664138	0.837771
0	H	0.70174	0.983965	0.327477
0	H	0.701324	0.0744318	0.715594
0	H	0.29134	0.971572	0.204597
0	H	0.807934	0.483703	0.829706
0	H	0.142985	0.570024	0.323428
0	H	0.147917	0.483549	0.707578
0	H	0.805277	0.568608	0.201336
0	H	0.343842	0.975028	0.8336
0	H	0.629891	0.0747767	0.322844
0	H	0.682548	0.978669	0.711954
0	H	0.303058	0.0672615	0.200378
0	H	0.0735826	0.480473	0.79824
0	H	0.162721	0.514602	0.277543
0	H	0.165706	0.538119	0.753569
0	H	0.0743133	0.568996	0.232537
0	H	0.325939	0.0313517	0.787872
0	H	0.653346	0.0157398	0.277456
0	H	0.411773	0.984347	0.74302
0	H	0.571779	0.0668699	0.232198
0	H	0.0532376	0.575875	0.793205
0	H	0.03227	0.436913	0.287591
0	H	0.0369534	0.616368	0.743549
0	H	0.0459962	0.474027	0.237729
0	H	0.456705	0.108638	0.798177
0	H	0.519939	0.939575	0.288052
0	H	0.453651	0.0784919	0.748316
0	H	0.536928	0.972526	0.23786
0	H	0.619632	0.369891	0.895555
0	H	0.334587	0.674089	0.382917
0	H	0.33944	0.379619	0.647979
0	H	0.615864	0.682761	0.135174
0	H	0.154156	0.868288	0.891556
0	H	0.821992	0.179801	0.38215
0	H	0.888568	0.86571	0.64141
0	H	0.11802	0.18367	0.135968
0	H	0.64893	0.461435	0.88512
0	H	0.310433	0.581646	0.373237
0	H	0.315188	0.472082	0.657579
0	H	0.644416	0.591034	0.14536
0	H	0.176284	0.961576	0.8831
0	H	0.798275	0.087279	0.372558
0	H	0.851449	0.956495	0.652446
0	H	0.146543	0.0917437	0.145963
0	H	0.509737	0.441154	0.913445
0	H	0.44189	0.604897	0.402008
0	H	0.447755	0.448637	0.628938
0	H	0.50462	0.61198	0.117194
0	H	0.0448036	0.935619	0.911528
0	H	0.929327	0.110775	0.401328
0	H	0.000168048	0.938941	0.625187
0	H	0.00762986	0.113129	0.117738
0	H	0.365741	0.390756	0.827899
0	H	0.608266	0.652297	0.317274
0	H	0.611548	0.401405	0.713835
0	H	0.364419	0.661623	0.202993
0	H	0.879428	0.895312	0.826262
0	H	0.0958791	0.157634	0.316577
0	H	0.11824	0.887493	0.711675
0	H	0.864	0.162018	0.203433
0	H	0.535824	0.451952	0.834872
0	H	0.436654	0.591485	0.32303
0	H	0.439833	0.462118	0.707972
0	H	0.532628	0.599621	0.195735
0	H	0.0507385	0.955655	0.83292
0	H	0.92328	0.0973896	0.322435
0	H	0.953854	0.950196	0.703258
0	H	0.0324809	0.100091	0.196438
0	H	0.559727	0.358014	0.841855
0	H	0.410255	0.685801	0.329579
0	H	0.413953	0.36779	0.701408
0	H	0.558848	0.693511	0.188894
0	H	0.0775202	0.860755	0.838088
0	H	0.898641	0.191802	0.328923
0	H	0.926785	0.85637	0.69629
0	H	0.0590108	0.193945	0.189593
0	H	0.102638	0.728234	0.834144
0	H	0.872798	0.315762	0.326723
0	H	0.877998	0.738459	0.703416
0	H	0.0978169	0.323114	0.194729
0	H	0.617382	0.229782	0.839659
0	H	0.362805	0.819353	0.328908
0	H	0.394462	0.226729	0.702436
0	H	0.603466	0.822586	0.19418
0	H	0.914947	0.677058	0.827707
0	H	0.0636681	0.365748	0.322004
0	H	0.0673299	0.688217	0.709269
0	H	0.912087	0.374407	0.202528
0	H	0.429287	0.180307	0.832033
0	H	0.552031	0.869436	0.322773
0	H	0.573524	0.175944	0.713736
0	H	0.417675	0.872845	0.202782
0	H	0.969332	0.702283	0.862241
0	H	0.996072	0.341914	0.356033
0	H	0.00486807	0.710178	0.674782
0	H	0.961482	0.352352	0.167476
0	H	0.485089	0.198437	0.867157
0	H	0.487588	0.850168	0.357398
0	H	0.542451	0.193031	0.677695
0	H	0.463722	0.852167	0.167457
0	H	0.82645	0.603987	0.876706
0	H	0.130011	0.44058	0.373002
0	H	0.135531	0.612457	0.658094
0	H	0.821462	0.449665	0.153848
0	H	0.361304	0.103026	0.883838
0	H	0.618196	0.947254	0.373165
0	H	0.679341	0.0964361	0.664766
0	H	0.326607	0.948554	0.152947
0	H	0.81656	0.508092	0.881034
0	H	0.133923	0.536527	0.377536
0	H	0.137648	0.516546	0.653467
0	H	0.812653	0.545646	0.149865
0	H	0.35413	0.00681476	0.88771
0	H	0.61991	0.043355	0.377292
0	H	0.677583	0.000684461	0.65992
0	H	0.315157	0.0445994	0.149299
0	H	0.98626	0.558919	0.896238
0	H	0.95905	0.484206	0.390058
0	H	0.963592	0.569602	0.641017
0	H	0.9815	0.494778	0.134408
0	H	0.531726	0.0573378	0.900414
0	H	0.445959	0.990467	0.389924
0	H	0.51549	0.0559105	0.644747
0	H	0.486634	0.995089	0.133967
