#******************************************
#
# CIF file created by Zeo++
# Zeo++ is an open source package to
# analyze microporous materials
#
#*******************************************

_cell_length_a		14.9532(0)
_cell_length_b		14.9975(0)
_cell_length_c		7.29747(0)
_cell_angle_alpha		90(0)
_cell_angle_beta		90(0)
_cell_angle_gamma		120.027(0)

_symmetry_space_group_name_H-M		'P1'
_symmetry_Int_Tables_number		1
_symmetry_cell_setting		Monoclinic

loop_
_symmetry_equiv_pos_as_xyz
'+x,+y,+z'

loop_
_atom_site_label
_atom_site_type_symbol
_atom_site_fract_x
_atom_site_fract_y
_atom_site_fract_z
0	Si	0.199617	0.524567	0.309753
0	Si	0.468623	0.666434	0.309058
0	Si	0.326433	0.793022	0.309872
0	Si	0.795176	0.467097	0.589752
0	Si	0.526241	0.325247	0.590403
0	Si	0.66848	0.19865	0.589457
0	C	0.155389	0.512696	0.553925
0	C	0.481029	0.633692	0.552598
0	C	0.358746	0.837501	0.553908
0	C	0.839414	0.478954	0.345581
0	C	0.513825	0.357962	0.34685
0	C	0.636219	0.154255	0.345377
0	H	0.215807	0.528103	0.655058
0	H	0.465408	0.677831	0.654874
0	H	0.314083	0.777331	0.655341
0	H	0.779067	0.463762	0.244452
0	H	0.529224	0.313669	0.24457
0	H	0.681007	0.214358	0.243945
0	H	0.0902331	0.43467	0.580387
0	H	0.559623	0.647406	0.577838
0	H	0.345128	0.902154	0.579844
0	H	0.904733	0.556899	0.319183
0	H	0.435274	0.344422	0.321779
0	H	0.649632	0.0894466	0.319506
0	H	0.127035	0.566494	0.58188
0	H	0.427683	0.551372	0.579945
0	H	0.441187	0.866318	0.581794
0	H	0.867521	0.424958	0.31756
0	H	0.567297	0.440234	0.319318
0	H	0.553833	0.125631	0.317405
0	C	0.0897198	0.506041	0.160954
0	C	0.48723	0.575589	0.159756
0	C	0.417845	0.902554	0.160984
0	C	0.90511	0.485687	0.73852
0	C	0.507589	0.416089	0.739638
0	C	0.577019	0.0890454	0.73816
0	H	0.103449	0.505078	0.0133703
0	H	0.488935	0.590618	0.0122292
0	H	0.403077	0.88891	0.0134245
0	H	0.891492	0.486899	0.886091
0	H	0.505865	0.401065	0.88717
0	H	0.591921	0.10254	0.885719
0	H	0.0688595	0.566074	0.184661
0	H	0.426711	0.494717	0.182531
0	H	0.498917	0.923236	0.184562
0	H	0.925801	0.42551	0.715107
0	H	0.568102	0.496965	0.716848
0	H	0.49598	0.0685606	0.714896
0	H	0.0212319	0.431628	0.195876
0	H	0.56157	0.581358	0.195785
0	H	0.411987	0.970951	0.196049
0	H	0.973659	0.559981	0.703247
0	H	0.433255	0.410302	0.703559
0	H	0.582641	0.0205592	0.702702
0	C	0.2235	0.414409	0.259713
0	C	0.578668	0.8008	0.25979
0	C	0.192026	0.769175	0.260188
0	C	0.771182	0.577187	0.639711
0	C	0.416195	0.190886	0.639625
0	C	0.802888	0.222499	0.63916
0	C	0.231323	0.356725	0.404127
0	C	0.635515	0.866541	0.404697
0	C	0.126191	0.760741	0.404804
0	C	0.763393	0.634835	0.495211
0	C	0.359521	0.125158	0.494606
0	C	0.868665	0.230886	0.494486
0	H	0.230336	0.378668	0.546458
0	H	0.613673	0.842938	0.546847
0	H	0.149113	0.761351	0.547066
0	H	0.764314	0.612813	0.352913
0	H	0.381459	0.148793	0.352491
0	H	0.845724	0.230258	0.35224
0	C	0.240368	0.269813	0.36933
0	C	0.72138	0.963569	0.370567
0	C	0.0298784	0.751551	0.370315
0	C	0.754414	0.721801	0.529878
0	C	0.273682	0.0280839	0.528546
0	C	0.964982	0.240053	0.528915
0	H	0.245217	0.225076	0.482824
0	H	0.765214	0.0135936	0.484338
0	H	0.979913	0.745934	0.483923
0	H	0.749546	0.766472	0.416289
0	H	0.230007	0.978072	0.414671
0	H	0.0148985	0.245643	0.415233
0	C	0.24392	0.240535	0.18882
0	C	0.750721	0.996884	0.19027
0	C	0.99724	0.74893	0.189891
0	C	0.750965	0.751207	0.710336
0	C	0.24417	0.994722	0.708762
0	C	0.997674	0.242686	0.709302
0	H	0.250952	0.172904	0.161807
0	H	0.817464	0.0724136	0.163764
0	H	0.922425	0.742051	0.163071
0	H	0.744023	0.818899	0.737259
0	H	0.177427	0.919176	0.735111
0	H	0.0724853	0.249546	0.736082
0	C	0.238652	0.298529	0.0435725
0	C	0.694016	0.933012	0.0445518
0	C	0.0608716	0.75495	0.0444197
0	C	0.756156	0.693208	0.855667
0	C	0.300735	0.0585823	0.85462
0	C	0.934077	0.236712	0.854814
0	H	0.243176	0.276771	0.902777
0	H	0.716196	0.959415	0.903906
0	H	0.0347763	0.751266	0.903683
0	H	0.751683	0.715054	0.996421
0	H	0.278433	0.0321395	0.995211
0	H	0.960215	0.24041	0.995527
0	C	0.227853	0.384442	0.0789331
0	C	0.608809	0.835527	0.0792222
0	C	0.157762	0.765456	0.079504
0	C	0.766782	0.607186	0.820453
0	C	0.385944	0.156087	0.820128
0	C	0.837201	0.226239	0.819824
0	H	0.223146	0.427734	0.962398
0	H	0.56617	0.787279	0.962372
0	H	0.205949	0.770528	0.962797
0	H	0.771337	0.563831	0.937035
0	H	0.428508	0.204319	0.937057
0	H	0.789037	0.221207	0.936538
0	P	0.331525	0.66142	0.269983
0	P	0.663307	0.330199	0.629501
