#******************************************
#
# CIF file created by Zeo++
# Zeo++ is an open source package to
# analyze microporous materials
#
#*******************************************

_cell_length_a		12.1534(0)
_cell_length_b		15.5643(0)
_cell_length_c		16.4509(0)
_cell_angle_alpha		90(0)
_cell_angle_beta		90(0)
_cell_angle_gamma		90(0)

_symmetry_space_group_name_H-M		'P1'
_symmetry_Int_Tables_number		1
_symmetry_cell_setting		Monoclinic

loop_
_symmetry_equiv_pos_as_xyz
'+x,+y,+z'

loop_
_atom_site_label
_atom_site_type_symbol
_atom_site_fract_x
_atom_site_fract_y
_atom_site_fract_z
0	N	0.0973766	0.672779	0.3257
0	N	0.958406	0.339211	0.325512
0	N	0.459522	0.177767	0.631393
0	N	0.59615	0.834137	0.63162
0	N	0.167943	0.741221	0.344643
0	N	0.887799	0.270788	0.344441
0	N	0.38856	0.245737	0.611785
0	N	0.667202	0.766209	0.612048
0	C	0.240098	0.776882	0.279831
0	C	0.815629	0.235143	0.279649
0	C	0.316283	0.281969	0.676223
0	C	0.739356	0.729901	0.676527
0	H	0.30896	0.813228	0.311062
0	H	0.746628	0.198965	0.310884
0	H	0.247438	0.318027	0.644671
0	H	0.808282	0.693896	0.644997
0	C	0.289355	0.706369	0.225325
0	C	0.766568	0.305599	0.224976
0	C	0.267031	0.211813	0.731142
0	C	0.788435	0.799986	0.731585
0	H	0.329208	0.736833	0.171775
0	H	0.726848	0.27508	0.171377
0	H	0.226161	0.242586	0.784154
0	H	0.829135	0.76919	0.7846
0	H	0.355632	0.672659	0.259118
0	H	0.700175	0.339344	0.258608
0	H	0.20156	0.177261	0.697249
0	H	0.854005	0.834621	0.697815
0	C	0.202195	0.641311	0.198539
0	C	0.853783	0.370647	0.198248
0	C	0.354661	0.147743	0.759143
0	C	0.700718	0.863996	0.759559
0	H	0.240468	0.589036	0.162581
0	H	0.815589	0.422911	0.162279
0	H	0.316583	0.0957153	0.79556
0	H	0.738577	0.915902	0.796049
0	H	0.141061	0.672202	0.158042
0	H	0.914999	0.339742	0.157826
0	H	0.415103	0.179577	0.799562
0	H	0.640118	0.83204	0.799814
0	C	0.145829	0.603578	0.273773
0	C	0.909991	0.408392	0.273561
0	C	0.412052	0.109296	0.684663
0	C	0.643473	0.902547	0.685027
0	H	0.0786575	0.557974	0.25709
0	H	0.977117	0.454073	0.256936
0	H	0.480068	0.0650698	0.702445
0	H	0.575377	0.946778	0.702792
0	H	0.206089	0.56735	0.312117
0	H	0.849614	0.444558	0.311842
0	H	0.352612	0.071606	0.646952
0	H	0.702982	0.940293	0.64741
0	C	0.981721	0.688937	0.325964
0	C	0.0740469	0.323005	0.325782
0	C	0.575145	0.194435	0.630487
0	C	0.480535	0.817333	0.630747
0	O	0.921612	0.635979	0.294116
0	O	0.1342	0.375934	0.293932
0	O	0.635776	0.142622	0.663377
0	O	0.4198	0.869029	0.663694
0	C	0.944504	0.766075	0.373763
0	C	0.11121	0.245859	0.373576
0	C	0.611472	0.270526	0.580867
0	C	0.44429	0.741222	0.581113
0	H	0.852879	0.771801	0.367524
0	H	0.202833	0.240101	0.367379
0	H	0.703114	0.276565	0.586411
0	H	0.352652	0.735155	0.586638
0	H	0.978223	0.825686	0.345001
0	H	0.0774742	0.186259	0.344802
0	H	0.577816	0.33063	0.608718
0	H	0.477965	0.681127	0.608983
0	C	0.972733	0.760782	0.464116
0	C	0.0829537	0.251138	0.463931
0	C	0.582303	0.263345	0.490769
0	C	0.473481	0.748387	0.491024
0	H	0.913854	0.714913	0.493246
0	H	0.141821	0.296992	0.493088
0	H	0.640899	0.216892	0.46217
0	H	0.414831	0.794762	0.462383
0	H	0.951411	0.824109	0.491903
0	H	0.104243	0.187828	0.491697
0	H	0.603411	0.326063	0.461735
0	H	0.452452	0.685619	0.462029
0	C	0.0921825	0.735728	0.487823
0	C	0.96351	0.276214	0.487636
0	C	0.462602	0.237872	0.468127
0	C	0.593154	0.773967	0.468401
0	C	0.174613	0.771989	0.425095
0	C	0.881085	0.240003	0.424893
0	C	0.380596	0.274745	0.530833
0	C	0.675146	0.737149	0.531127
0	O	0.2409	0.829177	0.439152
0	O	0.814545	0.183005	0.438913
0	O	0.313534	0.331215	0.5162
0	O	0.741936	0.680471	0.516546
0	N	0.123288	0.768812	0.570293
0	N	0.932363	0.243092	0.570068
0	N	0.429928	0.269976	0.385705
0	N	0.625896	0.741836	0.386001
0	H	0.109007	0.83311	0.57784
0	H	0.946628	0.17878	0.577574
0	H	0.442906	0.334321	0.377411
0	H	0.613051	0.677466	0.377765
0	C	0.0641204	0.713292	0.630927
0	C	0.991501	0.298571	0.630765
0	C	0.48813	0.214183	0.324869
0	C	0.567501	0.797508	0.325163
0	H	0.974337	0.73107	0.6348
0	H	0.0812648	0.280763	0.634672
0	H	0.577531	0.232674	0.319316
0	H	0.478154	0.77895	0.319729
0	C	0.0716577	0.621989	0.591999
0	C	0.984003	0.389903	0.591876
0	C	0.483006	0.123241	0.364831
0	C	0.57258	0.888497	0.365041
0	H	0.991318	0.588559	0.598414
0	H	0.064329	0.42334	0.598346
0	H	0.563992	0.0907458	0.358337
0	H	0.491543	0.920949	0.358513
0	C	0.163141	0.566138	0.627722
0	C	0.892469	0.445714	0.627598
0	C	0.392356	0.065801	0.330198
0	C	0.663189	0.945932	0.330349
0	O	0.164982	0.526965	0.690932
0	O	0.890595	0.484857	0.690829
0	O	0.390921	0.0253394	0.267711
0	O	0.664612	0.986261	0.267779
0	N	0.249181	0.56208	0.568831
0	N	0.806471	0.449763	0.568706
0	N	0.30649	0.062219	0.389259
0	N	0.748993	0.949707	0.389439
0	C	0.354647	0.517468	0.582603
0	C	0.700911	0.494245	0.582496
0	C	0.201217	0.0171405	0.375852
0	C	0.854182	0.994853	0.376003
0	H	0.422353	0.551726	0.55198
0	H	0.633383	0.46019	0.551507
0	H	0.134092	0.0497512	0.408708
0	H	0.921241	0.962706	0.409397
0	H	0.350888	0.451211	0.557993
0	H	0.704738	0.560629	0.558215
0	H	0.206642	0.950059	0.398297
0	H	0.848353	0.0621683	0.397818
0	H	0.372733	0.514032	0.648793
0	H	0.682534	0.497276	0.648582
0	H	0.181196	0.0157665	0.309971
0	H	0.874595	0.995663	0.310192
0	C	0.224095	0.605503	0.495073
0	C	0.831585	0.406413	0.494909
0	C	0.331196	0.107193	0.462263
0	C	0.724375	0.904701	0.462444
0	O	0.288851	0.612666	0.439747
0	O	0.766852	0.399664	0.439554
0	O	0.266402	0.115008	0.51749
0	O	0.789152	0.897104	0.517692
0	C	0.104612	0.637219	0.501498
0	C	0.951111	0.374714	0.501349
0	C	0.4505	0.139213	0.455343
0	C	0.605096	0.87262	0.455563
0	H	0.0524107	0.599767	0.458676
0	H	0.00332489	0.412161	0.458538
0	H	0.503069	0.102384	0.498372
0	H	0.552452	0.909454	0.498553
0	C	0.176074	0.843843	0.229145
0	C	0.879501	0.167974	0.229098
0	C	0.379907	0.349403	0.726669
0	C	0.675657	0.662369	0.7268
0	O	0.0825726	0.868524	0.239519
0	O	0.972869	0.14299	0.239616
0	O	0.472943	0.374973	0.715864
0	O	0.58267	0.636749	0.715894
0	O	0.24528	0.873331	0.171542
0	O	0.810275	0.13855	0.171489
0	O	0.310576	0.377941	0.78459
0	O	0.744902	0.633759	0.784752
0	C	0.216107	0.943613	0.111968
0	C	0.839297	0.068128	0.112017
0	C	0.338737	0.447739	0.844956
0	C	0.716706	0.563826	0.844955
0	C	0.32942	0.959415	0.0751202
0	C	0.725936	0.0523651	0.0752669
0	C	0.224917	0.463162	0.881021
0	C	0.8305	0.548345	0.881044
0	H	0.363604	0.901013	0.0478856
0	H	0.69186	0.110675	0.0477885
0	H	0.190659	0.40483	0.908374
0	H	0.864673	0.606581	0.908646
0	H	0.387356	0.981702	0.122401
0	H	0.667966	0.0303154	0.122608
0	H	0.167368	0.484969	0.833259
0	H	0.888115	0.526765	0.833236
0	H	0.325714	0.00925624	0.0282416
0	H	0.729521	0.00226521	0.0285579
0	H	0.227612	0.513382	0.927644
0	H	0.82781	0.497917	0.927456
0	C	0.133307	0.905147	0.0531204
0	C	0.922103	0.106416	0.0530634
0	C	0.420809	0.408411	0.903884
0	C	0.63453	0.602961	0.903926
0	H	0.057641	0.885003	0.0844747
0	H	0.997608	0.126917	0.0844402
0	H	0.495744	0.387024	0.872332
0	H	0.559714	0.624556	0.872363
0	H	0.16638	0.848419	0.021845
0	H	0.888901	0.162863	0.0214113
0	H	0.386605	0.352394	0.935619
0	H	0.668752	0.658812	0.935948
0	H	0.109567	0.951701	0.00627087
0	H	0.946129	0.0596876	0.00657468
0	H	0.445965	0.454969	0.950298
0	H	0.609211	0.556264	0.950089
0	C	0.173696	0.0210225	0.157985
0	C	0.881645	0.990745	0.15811
0	C	0.381859	0.525652	0.800079
0	C	0.673644	0.485977	0.799922
0	H	0.221787	0.0324935	0.213944
0	H	0.833353	0.979233	0.213972
0	H	0.333241	0.538539	0.744643
0	H	0.722176	0.473346	0.744389
0	H	0.0865729	0.0142754	0.176834
0	H	0.968681	0.997593	0.177137
0	H	0.468728	0.518575	0.780578
0	H	0.586725	0.493052	0.780531
0	H	0.179626	0.0801221	0.12187
0	H	0.875949	0.93163	0.121991
0	H	0.377044	0.58414	0.837192
0	H	0.678647	0.427391	0.836836
0	C	0.111635	0.718204	0.715738
0	C	0.943894	0.293606	0.715534
0	C	0.438084	0.217849	0.240797
0	C	0.617437	0.793774	0.24106
0	C	0.210289	0.756725	0.733835
0	C	0.845234	0.255069	0.733552
0	C	0.339667	0.25712	0.223472
0	C	0.715983	0.754704	0.223721
0	H	0.259268	0.789446	0.687037
0	H	0.796289	0.222396	0.686707
0	H	0.292145	0.290635	0.270565
0	H	0.763699	0.721403	0.270838
0	C	0.252788	0.754564	0.815071
0	C	0.802651	0.257231	0.814757
0	C	0.29563	0.254934	0.142667
0	C	0.759898	0.756854	0.142879
0	C	0.356903	0.792108	0.834733
0	C	0.698517	0.219656	0.834353
0	C	0.192054	0.293761	0.123667
0	C	0.863611	0.718238	0.123865
0	H	0.401694	0.825958	0.786724
0	H	0.653766	0.185838	0.786316
0	H	0.148601	0.328385	0.171839
0	H	0.907256	0.683829	0.172066
0	C	0.398989	0.785539	0.911902
0	C	0.656418	0.226087	0.911515
0	C	0.148838	0.287763	0.0468066
0	C	0.906698	0.724186	0.0469627
0	H	0.478929	0.812743	0.926913
0	H	0.576454	0.198887	0.926475
0	H	0.0692315	0.31593	0.0323775
0	H	0.986403	0.696195	0.0325411
0	C	0.338408	0.742583	0.973934
0	C	0.716978	0.268956	0.973633
0	C	0.207702	0.244067	0.984341
0	C	0.847535	0.767559	0.984445
0	H	0.373935	0.738348	0.0346556
0	H	0.68141	0.2731	0.0343455
0	H	0.171295	0.240269	0.923874
0	H	0.883823	0.771321	0.923939
0	C	0.237186	0.707529	0.957237
0	C	0.818205	0.30403	0.957012
0	C	0.308345	0.207686	0.000396896
0	C	0.746721	0.803654	0.000505727
0	H	0.190171	0.675084	0.0044325
0	H	0.865228	0.336412	0.0042363
0	H	0.354121	0.174689	0.95289
0	H	0.700692	0.836357	0.952947
0	C	0.192019	0.712579	0.877067
0	C	0.863422	0.299048	0.876835
0	C	0.354599	0.212064	0.0802874
0	C	0.700609	0.799354	0.0804416
0	C	0.0875093	0.675599	0.857153
0	C	0.96791	0.336131	0.856988
0	C	0.458472	0.173613	0.0995445
0	C	0.596583	0.837548	0.0997177
0	H	0.0403526	0.644293	0.905042
0	H	0.0150359	0.367363	0.904948
0	H	0.504038	0.141272	0.0514317
0	H	0.550748	0.869592	0.0515658
0	C	0.0485081	0.678261	0.779082
0	C	0.00697708	0.333508	0.778945
0	C	0.499012	0.176373	0.177176
0	C	0.556194	0.834893	0.177397
0	H	0.969654	0.64827	0.763975
0	H	0.0858178	0.363541	0.76386
0	H	0.577405	0.145405	0.191798
0	H	0.477677	0.865666	0.191997
