#******************************************
#
# CIF file created by Zeo++
# Zeo++ is an open source package to
# analyze microporous materials
#
#*******************************************

_cell_length_a		17.1631(0)
_cell_length_b		16.4704(0)
_cell_length_c		17.6153(0)
_cell_angle_alpha		90(0)
_cell_angle_beta		92.9182(0)
_cell_angle_gamma		90(0)

_symmetry_space_group_name_H-M		'P1'
_symmetry_Int_Tables_number		1
_symmetry_cell_setting		Monoclinic

loop_
_symmetry_equiv_pos_as_xyz
'+x,+y,+z'

loop_
_atom_site_label
_atom_site_type_symbol
_atom_site_fract_x
_atom_site_fract_y
_atom_site_fract_z
0	P	0.665156	0.171111	0.201345
0	P	0.342688	0.669633	0.331308
0	P	0.343857	0.849045	0.8409
0	P	0.666135	0.350463	0.710914
0	P	0.6878	0.885957	0.29656
0	P	0.327761	0.379311	0.252261
0	P	0.321006	0.134276	0.745773
0	P	0.681066	0.640755	0.789921
0	P	0.897768	0.030718	0.327464
0	P	0.11848	0.521958	0.208578
0	P	0.111195	0.989238	0.714818
0	P	0.890345	0.497931	0.8336
0	P	0.771681	0.013326	0.0569304
0	P	0.234322	0.531048	0.474299
0	P	0.237327	0.00665926	0.985403
0	P	0.774478	0.489038	0.567836
0	C	0.756765	0.0264206	0.223968
0	C	0.2604	0.527736	0.310779
0	C	0.25221	0.993677	0.818326
0	C	0.74842	0.492331	0.731381
0	C	0.672423	0.0597599	0.215485
0	C	0.346665	0.558005	0.319091
0	C	0.336576	0.960391	0.826759
0	C	0.662149	0.462098	0.722999
0	C	0.752911	0.932872	0.225963
0	C	0.262006	0.434378	0.317277
0	C	0.25597	0.0872287	0.816369
0	C	0.746853	0.585693	0.72494
0	C	0.794948	0.0616907	0.298321
0	C	0.224385	0.552649	0.232119
0	C	0.214048	0.958397	0.74397
0	C	0.784412	0.467343	0.810032
0	C	0.804891	0.0524859	0.15516
0	C	0.214792	0.569829	0.374473
0	C	0.204117	0.967557	0.887135
0	C	0.79401	0.450248	0.667665
0	B	0.764803	0.199932	0.146734
0	B	0.232783	0.666374	0.374401
0	B	0.244212	0.820228	0.89551
0	B	0.776012	0.353716	0.66775
0	B	0.70226	0.934546	0.400682
0	B	0.326346	0.41301	0.142255
0	B	0.306424	0.0857762	0.641633
0	B	0.682345	0.606965	0.899914
0	B	0.911061	0.910124	0.327372
0	B	0.104203	0.400937	0.215809
0	B	0.0977833	0.109817	0.714866
0	B	0.904654	0.618953	0.826305
0	B	0.655457	0.0208179	0.0415138
0	B	0.346895	0.54608	0.507388
0	B	0.353554	0.999239	0.000812951
0	B	0.661917	0.473925	0.534772
0	C	0.660157	0.217347	0.29571
0	C	0.35519	0.713119	0.237182
0	C	0.348787	0.802734	0.746561
0	C	0.653649	0.307057	0.805069
0	C	0.590654	0.206485	0.332633
0	C	0.42353	0.690057	0.20231
0	C	0.41825	0.813528	0.70955
0	C	0.585542	0.330558	0.840114
0	C	0.585009	0.236255	0.406496
0	C	0.433335	0.712397	0.127045
0	C	0.423823	0.783641	0.635722
0	C	0.575741	0.308188	0.915368
0	C	0.648426	0.276243	0.44274
0	C	0.374917	0.756883	0.0870507
0	C	0.360382	0.743583	0.599606
0	C	0.633937	0.263224	0.955184
0	C	0.717853	0.285531	0.405509
0	C	0.307897	0.78029	0.122725
0	C	0.290989	0.734372	0.636904
0	C	0.7007	0.239371	0.919325
0	C	0.723814	0.257242	0.331172
0	C	0.298147	0.759769	0.19899
0	C	0.285096	0.762806	0.711206
0	C	0.710428	0.25991	0.84306
0	C	0.576078	0.19854	0.146333
0	C	0.421739	0.706864	0.395616
0	C	0.432918	0.821598	0.895929
0	C	0.587154	0.313033	0.646643
0	C	0.558719	0.280953	0.135139
0	C	0.427925	0.790156	0.41001
0	C	0.450229	0.73918	0.907162
0	C	0.581292	0.229723	0.63222
0	C	0.489477	0.302365	0.0951434
0	C	0.492746	0.819273	0.453099
0	C	0.519434	0.717744	0.947218
0	C	0.516584	0.200357	0.589151
0	C	0.438054	0.242262	0.0667485
0	C	0.55097	0.765696	0.480447
0	C	0.570872	0.777842	0.975624
0	C	0.458127	0.25368	0.561841
0	C	0.456117	0.160665	0.0786822
0	C	0.543169	0.682365	0.467185
0	C	0.552855	0.859442	0.963636
0	C	0.465607	0.337031	0.57513
0	C	0.52528	0.138113	0.118549
0	C	0.478063	0.652453	0.424975
0	C	0.483727	0.882016	0.923725
0	C	0.530606	0.367212	0.61733
0	C	0.58643	0.900997	0.258531
0	C	0.42805	0.396645	0.293068
0	C	0.422393	0.119237	0.783741
0	C	0.580776	0.623439	0.749096
0	C	0.531766	0.93179	0.30692
0	C	0.48355	0.424668	0.244239
0	C	0.477001	0.0883373	0.735355
0	C	0.525262	0.595583	0.797993
0	C	0.455092	0.945576	0.278806
0	C	0.558131	0.445864	0.273521
0	C	0.553675	0.0744925	0.763462
0	C	0.450657	0.574399	0.768806
0	C	0.434048	0.929969	0.202521
0	C	0.575802	0.440313	0.351627
0	C	0.574775	0.0901994	0.839718
0	C	0.432972	0.579738	0.690687
0	C	0.489634	0.900022	0.154248
0	C	0.51972	0.411952	0.400161
0	C	0.51923	0.120269	0.887978
0	C	0.489057	0.607896	0.642063
0	C	0.565751	0.884038	0.182378
0	C	0.445797	0.388689	0.370968
0	C	0.443114	0.136267	0.859874
0	C	0.563007	0.631199	0.671186
0	C	0.70712	0.776272	0.296074
0	C	0.305017	0.270914	0.259719
0	C	0.301562	0.243932	0.746397
0	C	0.703816	0.749156	0.782477
0	C	0.644261	0.723042	0.302035
0	C	0.362709	0.214724	0.243138
0	C	0.364341	0.297316	0.740643
0	C	0.646171	0.805311	0.79928
0	C	0.657894	0.639406	0.301333
0	C	0.345237	0.131836	0.244706
0	C	0.350539	0.380914	0.741482
0	C	0.663603	0.888214	0.797667
0	C	0.733738	0.60974	0.294749
0	C	0.270869	0.105726	0.263005
0	C	0.274609	0.410392	0.747986
0	C	0.737866	0.914378	0.779083
0	C	0.796243	0.663492	0.290349
0	C	0.213696	0.162716	0.279195
0	C	0.2122	0.356497	0.752171
0	C	0.794982	0.857414	0.762662
0	C	0.783142	0.747482	0.291325
0	C	0.230268	0.245849	0.276905
0	C	0.225468	0.272536	0.75106
0	C	0.778469	0.77427	0.765004
0	C	0.960772	0.0845544	0.262357
0	C	0.0597063	0.580588	0.268336
0	C	0.0481834	0.93532	0.779858
0	C	0.949079	0.439219	0.773869
0	C	0.0106048	0.0404449	0.217951
0	C	0.0136336	0.537753	0.326231
0	C	0.998203	0.979351	0.824167
0	C	0.995104	0.481994	0.715892
0	C	0.0577744	0.0821752	0.168132
0	C	0.979061	0.596052	0.381467
0	C	0.950932	0.937541	0.873841
0	C	0.0296549	0.423645	0.660692
0	C	0.0554125	0.166729	0.164132
0	C	0.980783	0.677292	0.371615
0	C	0.953383	0.852995	0.877832
0	C	0.0279524	0.342414	0.670615
0	C	0.00624601	0.210643	0.210356
0	C	0.0179933	0.713821	0.308493
0	C	0.00270904	0.809153	0.831709
0	C	0.99075	0.305938	0.733764
0	C	0.958589	0.169584	0.259481
0	C	0.0537084	0.664131	0.257685
0	C	0.0504238	0.850282	0.782692
0	C	0.95504	0.355675	0.784543
0	C	0.920613	0.0731467	0.422523
0	C	0.101601	0.556129	0.108957
0	C	0.0884126	0.946774	0.619752
0	C	0.907139	0.463768	0.933233
0	C	0.862816	0.0850826	0.474291
0	C	0.15888	0.54897	0.0559647
0	C	0.146175	0.934898	0.567942
0	C	0.849808	0.471005	0.986164
0	C	0.884098	0.11319	0.547499
0	C	0.142356	0.574576	0.980999
0	C	0.124877	0.906802	0.494734
0	C	0.866232	0.445382	0.0611409
0	C	0.962395	0.128298	0.568392
0	C	0.0687609	0.605856	0.959495
0	C	0.0465873	0.891643	0.47388
0	C	0.939771	0.414011	0.0827266
0	C	0.0197041	0.116468	0.515826
0	C	0.0118236	0.612659	0.0131009
0	C	0.98929	0.903401	0.526476
0	C	0.99675	0.407124	0.0291715
0	C	0.999156	0.0882775	0.442647
0	C	0.0280525	0.587724	0.0881788
0	C	0.00987245	0.931564	0.599659
0	C	0.980626	0.432056	0.954076
0	C	0.818249	0.0709526	0.983968
0	C	0.172186	0.584755	0.540088
0	C	0.190675	0.948946	0.0582549
0	C	0.836566	0.435279	0.502033
0	C	0.885416	0.117578	0.999039
0	C	0.116728	0.642233	0.516134
0	C	0.12339	0.902557	0.0430068
0	C	0.892066	0.377852	0.526014
0	C	0.918228	0.157754	0.938408
0	C	0.0745305	0.683084	0.570477
0	C	0.0903929	0.862302	0.103485
0	C	0.934233	0.336949	0.471685
0	C	0.884769	0.149569	0.86423
0	C	0.0859079	0.66412	0.647503
0	C	0.123774	0.870231	0.177726
0	C	0.922806	0.355819	0.394644
0	C	0.817708	0.104329	0.84989
0	C	0.140041	0.604375	0.67071
0	C	0.190932	0.915269	0.192263
0	C	0.868589	0.415461	0.371395
0	C	0.784217	0.0650294	0.909829
0	C	0.18343	0.564369	0.616995
0	C	0.224634	0.95458	0.132439
0	C	0.825206	0.455499	0.425097
0	C	0.805694	0.907257	0.0517009
0	C	0.206863	0.423636	0.483669
0	C	0.203205	0.112688	0.990658
0	C	0.801975	0.596446	0.558462
0	C	0.766186	0.854658	0.00085526
0	C	0.252387	0.376648	0.53491
0	C	0.242753	0.165414	0.0413698
0	C	0.756502	0.643436	0.507171
0	C	0.790337	0.773675	0.996781
0	C	0.233613	0.294829	0.544985
0	C	0.218426	0.246333	0.0454742
0	C	0.775304	0.725258	0.497151
0	C	0.853979	0.746209	0.0421873
0	C	0.170445	0.260741	0.503134
0	C	0.154585	0.27361	0.000233696
0	C	0.838411	0.759358	0.539107
0	C	0.89408	0.799723	0.0919107
0	C	0.125355	0.308421	0.451936
0	C	0.11447	0.21998	0.950653
0	C	0.88344	0.711647	0.590335
0	C	0.870467	0.880767	0.0962552
0	C	0.142252	0.390886	0.443183
0	C	0.138254	0.13899	0.946267
0	C	0.866556	0.629168	0.599031
0	H	0.965119	0.50251	0.297573
0	H	0.118079	0.0126524	0.346118
0	H	0.0436153	0.517312	0.74448
0	H	0.889852	0.00980399	0.696484
0	H	0.818197	0.225131	0.185353
0	H	0.190484	0.696066	0.307687
0	H	0.190825	0.79501	0.856897
0	H	0.818549	0.324195	0.734458
0	H	0.757836	0.204212	0.0793399
0	H	0.226783	0.705855	0.430867
0	H	0.251194	0.815889	0.962901
0	H	0.781927	0.314233	0.611267
0	H	0.763404	0.910655	0.427771
0	H	0.284044	0.36645	0.107487
0	H	0.24513	0.109505	0.614745
0	H	0.72421	0.653798	0.934838
0	H	0.649661	0.912556	0.437397
0	H	0.392225	0.409064	0.122757
0	H	0.358828	0.107977	0.604767
0	H	0.616351	0.610466	0.919157
0	H	0.702275	0.00717977	0.393808
0	H	0.301967	0.481198	0.135978
0	H	0.306628	0.0131345	0.648447
0	H	0.707107	0.538934	0.906266
0	H	0.889503	0.883909	0.266088
0	H	0.127497	0.378837	0.278047
0	H	0.119441	0.136124	0.776091
0	H	0.881565	0.640908	0.763964
0	H	0.872688	0.884309	0.376932
0	H	0.139914	0.369893	0.167066
0	H	0.136037	0.135619	0.665202
0	H	0.868752	0.650044	0.874884
0	H	0.978741	0.894573	0.341026
0	H	0.035771	0.387076	0.20618
0	H	0.0300665	0.125284	0.701333
0	H	0.973064	0.632841	0.83616
0	H	0.638897	0.0896351	0.0265842
0	H	0.35854	0.617431	0.515533
0	H	0.370146	0.930425	0.0157315
0	H	0.650284	0.402556	0.526843
0	H	0.637147	0.979311	0.987343
0	H	0.358595	0.511689	0.566704
0	H	0.371861	0.0407727	0.0549708
0	H	0.65023	0.508061	0.475328
0	H	0.623836	0.995037	0.0958962
0	H	0.385742	0.517062	0.459491
0	H	0.385115	0.0250233	0.946394
0	H	0.623025	0.503081	0.582553
0	H	0.640275	0.0279369	0.164279
0	H	0.37732	0.529447	0.370893
0	H	0.368748	0.992229	0.877943
0	H	0.631557	0.490594	0.671132
0	H	0.63822	0.0432695	0.265177
0	H	0.380544	0.541645	0.269523
0	H	0.370715	0.976891	0.777023
0	H	0.628204	0.478538	0.772495
0	H	0.814444	0.906794	0.239069
0	H	0.200054	0.40901	0.30506
0	H	0.194406	0.113235	0.80329
0	H	0.808823	0.611028	0.737216
0	H	0.735033	0.906748	0.169704
0	H	0.279244	0.413384	0.375478
0	H	0.273837	0.113348	0.872637
0	H	0.729691	0.60672	0.66673
0	H	0.757139	0.0423491	0.34765
0	H	0.25985	0.525118	0.185634
0	H	0.251818	0.977813	0.694634
0	H	0.74893	0.494879	0.856533
0	H	0.79342	0.128572	0.299391
0	H	0.227255	0.618354	0.221077
0	H	0.215653	0.891518	0.742876
0	H	0.781513	0.401635	0.821005
0	H	0.866388	0.0299828	0.164544
0	H	0.150011	0.561998	0.361748
0	H	0.142611	0.990055	0.877777
0	H	0.858795	0.458083	0.680374
0	H	0.818061	0.120423	0.15303
0	H	0.16376	0.71069	0.345266
0	H	0.190906	0.899615	0.88922
0	H	0.844787	0.309077	0.696722
0	H	0.539921	0.175948	0.305579
0	H	0.469752	0.655125	0.232051
0	H	0.469007	0.844108	0.736525
0	H	0.539492	0.365831	0.810504
0	H	0.530831	0.228864	0.435537
0	H	0.486106	0.695302	0.099058
0	H	0.477956	0.79099	0.606599
0	H	0.52313	0.325602	0.94347
0	H	0.643427	0.302851	0.499685
0	H	0.382583	0.773858	0.0280849
0	H	0.365334	0.716852	0.542699
0	H	0.626272	0.246212	0.0141414
0	H	0.767751	0.31524	0.43477
0	H	0.262074	0.815603	0.0920824
0	H	0.241065	0.704616	0.607743
0	H	0.746335	0.203673	0.949824
0	H	0.778299	0.267613	0.303222
0	H	0.246083	0.783408	0.22546
0	H	0.230621	0.752516	0.739196
0	H	0.762248	0.235906	0.816443
0	H	0.597231	0.329158	0.157257
0	H	0.384128	0.833614	0.388048
0	H	0.411698	0.69099	0.885039
0	H	0.625246	0.186427	0.654155
0	H	0.472661	0.366497	0.0877912
0	H	0.498394	0.884112	0.464879
0	H	0.536186	0.653606	0.954616
0	H	0.511197	0.135496	0.577352
0	H	0.383525	0.259915	0.0363041
0	H	0.60276	0.789256	0.511846
0	H	0.625371	0.76017	0.00612049
0	H	0.406419	0.229919	0.530466
0	H	0.415332	0.111767	0.0574906
0	H	0.588047	0.640111	0.489225
0	H	0.59366	0.908332	0.984838
0	H	0.420537	0.379092	0.553125
0	H	0.537156	0.0730258	0.126312
0	H	0.473211	0.586502	0.416644
0	H	0.471877	0.947099	0.915928
0	H	0.535175	0.433156	0.625705
0	H	0.547271	0.94554	0.366665
0	H	0.469129	0.431014	0.182623
0	H	0.461469	0.0745482	0.675629
0	H	0.53975	0.589355	0.859632
0	H	0.411596	0.968598	0.31635
0	H	0.601818	0.467205	0.235519
0	H	0.597117	0.051357	0.725922
0	H	0.406951	0.553218	0.80686
0	H	0.373752	0.940517	0.180408
0	H	0.633368	0.457939	0.375956
0	H	0.635064	0.0796211	0.861819
0	H	0.375382	0.562128	0.666444
0	H	0.473193	0.88908	0.0943104
0	H	0.534299	0.408291	0.461293
0	H	0.53571	0.131287	0.947897
0	H	0.474473	0.61138	0.58092
0	H	0.607233	0.858689	0.143712
0	H	0.403597	0.365524	0.409975
0	H	0.40165	0.161678	0.898525
0	H	0.605194	0.654236	0.632098
0	H	0.584597	0.744813	0.307261
0	H	0.420982	0.233759	0.228202
0	H	0.424053	0.275669	0.735484
0	H	0.587961	0.786253	0.81441
0	H	0.60938	0.597447	0.305899
0	H	0.389442	0.0876127	0.230913
0	H	0.398976	0.423003	0.737088
0	H	0.619417	0.932398	0.811631
0	H	0.744034	0.544508	0.293128
0	H	0.256582	0.0405851	0.263517
0	H	0.264185	0.475597	0.749726
0	H	0.75213	0.979528	0.778534
0	H	0.856146	0.640741	0.286792
0	H	0.155459	0.142265	0.29254
0	H	0.152234	0.379095	0.75567
0	H	0.853144	0.877911	0.749089
0	H	0.834096	0.788159	0.28873
0	H	0.183203	0.289543	0.287392
0	H	0.17458	0.231745	0.753494
0	H	0.825482	0.730605	0.754322
0	H	0.0155599	0.973988	0.220867
0	H	0.0494478	0.491641	0.359255
0	H	0.993189	0.0458009	0.821282
0	H	0.959235	0.528034	0.682838
0	H	0.0974196	0.047447	0.133575
0	H	0.951249	0.568051	0.428632
0	H	0.911137	0.972223	0.908283
0	H	0.0574296	0.451581	0.613463
0	H	0.0926146	0.199203	0.125632
0	H	0.953509	0.718204	0.411123
0	H	0.916109	0.820442	0.916208
0	H	0.0552003	0.301472	0.631114
0	H	0.00713935	0.277404	0.208212
0	H	0.0118307	0.778378	0.299671
0	H	0.00186357	0.742393	0.833852
0	H	0.996872	0.241379	0.742622
0	H	0.921599	0.204807	0.295755
0	H	0.0794862	0.693072	0.208706
0	H	0.0874969	0.815122	0.746449
0	H	0.929232	0.326756	0.833519
0	H	0.801337	0.0719765	0.460074
0	H	0.21642	0.52297	0.0711365
0	H	0.207649	0.948045	0.582131
0	H	0.7923	0.497052	0.97093
0	H	0.839604	0.121827	0.588628
0	H	0.186636	0.568976	0.939404
0	H	0.16935	0.898214	0.453574
0	H	0.821892	0.451028	0.102667
0	H	0.980227	0.147532	0.627106
0	H	0.0539563	0.623728	0.900464
0	H	0.0287194	0.872421	0.415173
0	H	0.954486	0.396122	0.141755
0	H	0.0809791	0.127987	0.532697
0	H	0.953936	0.636145	0.995928
0	H	0.928019	0.891853	0.509626
0	H	0.0546009	0.383552	0.0464016
0	H	0.045492	0.077486	0.403135
0	H	0.982375	0.592892	0.129108
0	H	0.963573	0.94222	0.639196
0	H	0.0263308	0.4268	0.913178
0	H	0.913449	0.123264	0.0554282
0	H	0.102797	0.655629	0.455995
0	H	0.0954021	0.897102	0.98658
0	H	0.906055	0.364525	0.586156
0	H	0.969596	0.195411	0.949134
0	H	0.0321078	0.729291	0.551736
0	H	0.0389568	0.824808	0.092592
0	H	0.976662	0.290751	0.490451
0	H	0.912639	0.179482	0.817679
0	H	0.0516482	0.69453	0.689615
0	H	0.0957578	0.840275	0.224161
0	H	0.957045	0.325382	0.352537
0	H	0.872767	0.0388023	0.725292
0	H	0.147052	0.587709	0.730547
0	H	0.134799	0.983145	0.317542
0	H	0.861491	0.43201	0.311536
0	H	0.730771	0.0304581	0.897962
0	H	0.224811	0.517408	0.636518
0	H	0.278197	0.988932	0.144444
0	H	0.78372	0.502341	0.405538
0	H	0.717324	0.874883	0.963213
0	H	0.302507	0.401978	0.567973
0	H	0.29176	0.145309	0.0788892
0	H	0.706425	0.618103	0.474035
0	H	0.75911	0.730134	0.957754
0	H	0.267727	0.257737	0.585941
0	H	0.249652	0.289979	0.0844139
0	H	0.741255	0.76235	0.456153
0	H	0.873135	0.682956	0.0380722
0	H	0.155793	0.196643	0.511175
0	H	0.135285	0.336815	0.00438882
0	H	0.853058	0.82347	0.531098
0	H	0.944351	0.778425	0.127166
0	H	0.0766513	0.281185	0.418978
0	H	0.0640049	0.241107	0.915562
0	H	0.932105	0.738864	0.623377
0	H	0.904089	0.921428	0.134517
0	H	0.103875	0.427992	0.404622
0	H	0.104629	0.0982439	0.908103
0	H	0.90492	0.592031	0.637602
