#******************************************
#
# CIF file created by Zeo++
# Zeo++ is an open source package to
# analyze microporous materials
#
#*******************************************

_cell_length_a		21.8018(0)
_cell_length_b		10.6272(0)
_cell_length_c		21.0661(0)
_cell_angle_alpha		90(0)
_cell_angle_beta		90(0)
_cell_angle_gamma		90(0)

_symmetry_space_group_name_H-M		'P1'
_symmetry_Int_Tables_number		1
_symmetry_cell_setting		Monoclinic

loop_
_symmetry_equiv_pos_as_xyz
'+x,+y,+z'

loop_
_atom_site_label
_atom_site_type_symbol
_atom_site_fract_x
_atom_site_fract_y
_atom_site_fract_z
0	C	0.461554	0.287496	0.0535788
0	C	0.0656118	0.200184	0.0543335
0	C	0.562224	0.792356	0.479089
0	C	0.96475	0.699697	0.478872
0	C	0.56523	0.703497	0.984994
0	C	0.961369	0.792111	0.98349
0	C	0.464814	0.199139	0.559722
0	C	0.0621956	0.292042	0.559096
0	C	0.498553	0.240443	0.00581276
0	C	0.0284008	0.247448	0.00680458
0	C	0.523536	0.749295	0.526381
0	C	0.00312813	0.744933	0.525898
0	C	0.52826	0.750557	0.0327823
0	C	0.99861	0.74493	0.0310207
0	C	0.50359	0.242153	0.51249
0	C	0.0238096	0.246812	0.512087
0	H	0.547747	0.229835	0.012839
0	H	0.979285	0.258417	0.0140851
0	H	0.474405	0.740633	0.518147
0	H	0.052126	0.755032	0.517451
0	H	0.479062	0.761173	0.0257943
0	H	0.047731	0.734095	0.0237405
0	H	0.552711	0.250746	0.520811
0	H	0.974814	0.236733	0.520545
0	C	0.471707	0.208594	0.947276
0	C	0.0549822	0.279161	0.948099
0	C	0.548518	0.718573	0.586011
0	C	0.977968	0.775956	0.585378
0	C	0.555153	0.782407	0.0913031
0	C	0.972045	0.713095	0.0897133
0	C	0.478719	0.272902	0.452819
0	C	0.0489463	0.215772	0.452595
0	H	0.500301	0.174746	0.908373
0	H	0.0262296	0.31341	0.909416
0	H	0.518475	0.687054	0.624211
0	H	0.00778053	0.809295	0.623346
0	H	0.526576	0.816286	0.130215
0	H	0.000814602	0.678857	0.12839
0	H	0.508835	0.304351	0.414668
0	H	0.0191168	0.18243	0.414646
0	C	0.408796	0.222832	0.937354
0	C	0.117799	0.264413	0.937777
0	C	0.61129	0.730147	0.597537
0	C	0.915307	0.762349	0.597003
0	C	0.618063	0.768093	0.101193
0	C	0.909214	0.727645	0.100036
0	C	0.41596	0.261456	0.441191
0	C	0.1116	0.229375	0.440945
0	H	0.389532	0.19933	0.890831
0	H	0.136849	0.287832	0.891133
0	H	0.629165	0.707195	0.644746
0	H	0.89729	0.785458	0.644136
0	H	0.637359	0.791546	0.147709
0	H	0.890169	0.704099	0.146665
0	H	0.398169	0.284429	0.393949
0	H	0.129594	0.206275	0.393801
0	C	0.370137	0.26809	0.985504
0	C	0.156665	0.218851	0.985683
0	C	0.651611	0.771863	0.549985
0	C	0.875254	0.718588	0.549683
0	C	0.656681	0.722825	0.0530084
0	C	0.870328	0.773116	0.0521346
0	C	0.375544	0.219798	0.488668
0	C	0.151675	0.273133	0.48826
0	H	0.320449	0.273362	0.97892
0	H	0.206288	0.213109	0.978784
0	H	0.701165	0.775517	0.557917
0	H	0.825731	0.713618	0.557708
0	H	0.706364	0.717432	0.0595903
0	H	0.820693	0.778677	0.0590277
0	H	0.325998	0.216265	0.480664
0	H	0.201189	0.278122	0.480208
0	C	0.397288	0.300837	0.0429075
0	C	0.129809	0.186449	0.0432677
0	C	0.626312	0.803566	0.491519
0	C	0.900747	0.68666	0.491334
0	C	0.629507	0.690164	0.99561
0	C	0.897162	0.805637	0.994554
0	C	0.400748	0.187997	0.547169
0	C	0.126196	0.305051	0.546615
0	C	0.477905	0.339455	0.118258
0	C	0.0496707	0.148691	0.119234
0	C	0.548199	0.840618	0.413069
0	C	0.97933	0.650347	0.413224
0	C	0.548824	0.651563	0.92033
0	C	0.977264	0.843427	0.91855
0	C	0.478723	0.150848	0.625755
0	C	0.0476347	0.341382	0.624753
0	C	0.413272	0.347767	0.152311
0	C	0.114525	0.140959	0.152879
0	C	0.613893	0.846319	0.381106
0	C	0.913721	0.642415	0.381187
0	C	0.613425	0.643157	0.88622
0	C	0.912395	0.850994	0.884925
0	C	0.412972	0.145186	0.657589
0	C	0.113251	0.349185	0.656782
0	H	0.409772	0.436458	0.180633
0	H	0.118282	0.0528136	0.181603
0	H	0.618752	0.934212	0.352332
0	H	0.909467	0.554089	0.352686
0	H	0.616884	0.55436	0.857974
0	H	0.908591	0.93909	0.856168
0	H	0.408044	0.0573034	0.686353
0	H	0.117543	0.43745	0.685332
0	C	0.527271	0.265852	0.156387
0	C	0.00038374	0.222342	0.157492
0	C	0.499812	0.764708	0.374653
0	C	0.0273894	0.726221	0.374391
0	C	0.49944	0.725188	0.882234
0	C	0.0265419	0.769597	0.880366
0	C	0.527065	0.226811	0.66421
0	C	0.999543	0.265509	0.663543
0	H	0.56016	0.221911	0.122102
0	H	0.967292	0.265905	0.123264
0	H	0.466262	0.722001	0.408645
0	H	0.0610357	0.769413	0.408097
0	H	0.466618	0.769261	0.916539
0	H	0.059603	0.726079	0.914639
0	H	0.560611	0.269592	0.630233
0	H	0.965898	0.2224	0.629812
0	C	0.506736	0.472819	0.10996
0	C	0.0210134	0.0150503	0.111496
0	C	0.519651	0.974907	0.41794
0	C	0.00887661	0.517153	0.419116
0	C	0.519978	0.518228	0.928687
0	C	0.00591924	0.977095	0.926169
0	C	0.507261	0.0165456	0.620939
0	C	0.0181253	0.474615	0.61891
0	H	0.519618	0.48989	0.0596867
0	H	0.00875817	0.996413	0.0612456
0	H	0.506399	0.997288	0.467303
0	H	0.0231369	0.497688	0.468516
0	H	0.507202	0.501133	0.978991
0	H	0.0181553	0.995942	0.976406
0	H	0.520441	0.994012	0.571574
0	H	0.00394449	0.494229	0.569503
0	H	0.473772	0.547899	0.121884
0	H	0.0538286	0.940474	0.124572
0	H	0.552911	0.0482719	0.404285
0	H	0.975921	0.442191	0.40703
0	H	0.552888	0.443099	0.916667
0	H	0.973103	0.0515984	0.912997
0	H	0.474024	0.943221	0.634698
0	H	0.0510837	0.54951	0.631111
0	C	0.563451	0.478706	0.153495
0	C	0.963804	0.0101986	0.154394
0	C	0.463268	0.977372	0.373881
0	C	0.0646187	0.514173	0.374164
0	C	0.463167	0.512428	0.885293
0	C	0.0631432	0.981749	0.883291
0	C	0.563706	0.0142276	0.664926
0	C	0.96232	0.477531	0.663783
0	H	0.606486	0.478767	0.125574
0	H	0.921051	0.0119615	0.125985
0	H	0.420003	0.978006	0.401436
0	H	0.108307	0.514267	0.401023
0	H	0.420188	0.512558	0.913311
0	H	0.105884	0.980101	0.911725
0	H	0.606928	0.013829	0.637299
0	H	0.918666	0.477379	0.636871
0	H	0.563852	0.565456	0.18317
0	H	0.962385	0.922997	0.183682
0	H	0.462682	0.0624506	0.34309
0	H	0.0648486	0.428499	0.343752
0	H	0.462638	0.425614	0.855671
0	H	0.0645756	0.0688194	0.853907
0	H	0.564414	0.9291	0.695674
0	H	0.962028	0.563205	0.694195
0	C	0.613094	0.322595	0.228414
0	C	0.915015	0.165739	0.230237
0	C	0.415396	0.817023	0.300119
0	C	0.111539	0.673864	0.299395
0	C	0.41348	0.668481	0.810381
0	C	0.111994	0.825899	0.807681
0	C	0.611472	0.174619	0.73874
0	C	0.915423	0.317866	0.738599
0	H	0.632229	0.402947	0.25658
0	H	0.895983	0.0852413	0.258415
0	H	0.396421	0.896148	0.27093
0	H	0.130368	0.594705	0.270132
0	H	0.394254	0.588125	0.782298
0	H	0.131083	0.90628	0.779458
0	H	0.630508	0.0954913	0.767883
0	H	0.896646	0.397017	0.767906
0	H	0.649308	0.291717	0.194796
0	H	0.878496	0.197015	0.197112
0	H	0.378707	0.786782	0.333234
0	H	0.14857	0.704259	0.332086
0	H	0.377349	0.699553	0.844052
0	H	0.148451	0.794655	0.840886
0	H	0.648131	0.205056	0.705635
0	H	0.878348	0.287576	0.705939
0	C	0.595149	0.214628	0.273581
0	C	0.933558	0.273363	0.275346
0	C	0.434618	0.707682	0.256416
0	C	0.0918289	0.782931	0.255751
0	C	0.431427	0.776326	0.765126
0	C	0.0934622	0.718155	0.762629
0	C	0.592144	0.283828	0.782486
0	C	0.935131	0.208707	0.782188
0	H	0.566143	0.253565	0.312348
0	H	0.963137	0.234179	0.313604
0	H	0.464379	0.745434	0.217947
0	H	0.0619182	0.744809	0.217532
0	H	0.460326	0.737174	0.726304
0	H	0.0639435	0.757289	0.724305
0	H	0.56235	0.245924	0.820886
0	H	0.965088	0.246735	0.820399
0	H	0.636946	0.175982	0.296243
0	H	0.892044	0.311784	0.298757
0	H	0.393356	0.667579	0.23324
0	H	0.132838	0.823279	0.232195
0	H	0.389595	0.814972	0.742487
0	H	0.134987	0.679614	0.739286
0	H	0.633368	0.323981	0.805732
0	H	0.894119	0.16839	0.805754
0	C	0.559214	0.109573	0.240148
0	C	0.968934	0.378663	0.241483
0	C	0.470168	0.604454	0.291655
0	C	0.0563949	0.885996	0.291225
0	C	0.467455	0.88132	0.798393
0	C	0.0580125	0.613029	0.796508
0	C	0.556587	0.387043	0.747257
0	C	0.9705	0.105643	0.74665
0	H	0.589592	0.0559332	0.207872
0	H	0.938064	0.431926	0.20955
0	H	0.439282	0.551125	0.323522
0	H	0.0874361	0.938927	0.323129
0	H	0.437158	0.935174	0.830681
0	H	0.0888229	0.559733	0.828495
0	H	0.58748	0.440462	0.715424
0	H	0.93942	0.0528645	0.714723
0	H	0.54263	0.0397292	0.275557
0	H	0.985821	0.448607	0.27668
0	H	0.487942	0.533846	0.257241
0	H	0.0385725	0.956865	0.256982
0	H	0.484054	0.951039	0.762913
0	H	0.0411318	0.54303	0.761333
0	H	0.538751	0.457587	0.781677
0	H	0.988296	0.0346306	0.780835
0	C	0.504672	0.161997	0.202627
0	C	0.0231462	0.326533	0.203396
0	C	0.523583	0.659031	0.330104
0	C	0.00311089	0.831116	0.329734
0	C	0.52202	0.82889	0.835904
0	C	0.00378194	0.665294	0.83453
0	C	0.503227	0.332476	0.708736
0	C	0.0237967	0.160509	0.708155
0	C	0.454002	0.224265	0.242977
0	C	0.0742918	0.265196	0.243431
0	C	0.575002	0.720259	0.29045
0	C	0.951953	0.768461	0.290243
0	C	0.572612	0.766461	0.795505
0	C	0.952656	0.726545	0.794465
0	C	0.451745	0.271203	0.748289
0	C	0.0749725	0.223093	0.747669
0	C	0.39979	0.235715	0.196927
0	C	0.128149	0.25381	0.196913
0	C	0.62826	0.733126	0.337589
0	C	0.898747	0.754854	0.337372
0	C	0.626883	0.755022	0.841491
0	C	0.898787	0.738066	0.84094
0	C	0.398554	0.25842	0.701066
0	C	0.128189	0.23663	0.700541
0	H	0.355281	0.250014	0.221734
0	H	0.172899	0.240387	0.221352
0	H	0.673276	0.746842	0.313698
0	H	0.853788	0.739806	0.313532
0	H	0.671342	0.740574	0.816614
0	H	0.854048	0.751443	0.816481
0	H	0.353493	0.24477	0.724874
0	H	0.173154	0.251591	0.724393
0	C	0.46845	0.0593064	0.166719
0	C	0.058813	0.42919	0.166863
0	C	0.559021	0.557774	0.367862
0	C	0.967195	0.931784	0.367374
0	C	0.558339	0.931615	0.871704
0	C	0.968088	0.562709	0.871086
0	C	0.467854	0.43375	0.670929
0	C	0.0596701	0.059868	0.670461
0	H	0.469981	0.968699	0.193109
0	H	0.057217	0.52013	0.192957
0	H	0.55772	0.466012	0.342476
0	H	0.968189	0.0235311	0.341995
0	H	0.556788	0.0221587	0.845245
0	H	0.969679	0.471737	0.845021
0	H	0.469095	0.525485	0.696353
0	H	0.058631	0.96805	0.695775
0	H	0.487795	0.0407604	0.119394
0	H	0.0390947	0.447098	0.119638
0	H	0.538826	0.541265	0.415003
0	H	0.987117	0.948514	0.414613
0	H	0.539057	0.950291	0.919035
0	H	0.987804	0.544853	0.918319
0	H	0.488142	0.450335	0.623837
0	H	0.039761	0.0433043	0.623204
0	C	0.401357	0.106022	0.162855
0	C	0.125966	0.383061	0.16251
0	C	0.626049	0.604395	0.372458
0	C	0.900296	0.884184	0.371729
0	C	0.625419	0.884828	0.87547
0	C	0.900942	0.60888	0.875414
0	C	0.400844	0.387121	0.666168
0	C	0.126595	0.107348	0.666154
0	H	0.382979	0.110663	0.113833
0	H	0.14398	0.378147	0.113357
0	H	0.643654	0.610144	0.421743
0	H	0.882236	0.878968	0.420836
0	H	0.64391	0.880308	0.924448
0	H	0.882943	0.613924	0.924568
0	H	0.383379	0.381322	0.61683
0	H	0.144689	0.112568	0.617061
0	C	0.32712	0.582624	0.0734666
0	C	0.199943	0.904637	0.0731514
0	C	0.699743	0.0813368	0.461726
0	C	0.827804	0.40671	0.461282
0	C	0.699702	0.408434	0.964816
0	C	0.826863	0.0871664	0.964662
0	C	0.327284	0.910214	0.57671
0	C	0.199233	0.584873	0.576678
0	C	0.344247	0.677042	0.116352
0	C	0.181747	0.811283	0.116167
0	C	0.683417	0.175245	0.418214
0	C	0.845061	0.313299	0.417906
0	C	0.682555	0.314221	0.921836
0	C	0.845115	0.180471	0.921648
0	C	0.343562	0.816226	0.620202
0	C	0.181962	0.678365	0.620009
0	H	0.342982	0.659181	0.167789
0	H	0.182227	0.830018	0.167568
0	H	0.684822	0.156254	0.366931
0	H	0.844531	0.33252	0.36658
0	H	0.68379	0.332316	0.87041
0	H	0.844655	0.161727	0.870248
0	H	0.342099	0.835149	0.671493
0	H	0.182466	0.659211	0.671341
0	C	0.363029	0.794457	0.0944722
0	C	0.162901	0.693793	0.0945132
0	C	0.665454	0.29369	0.439366
0	C	0.862967	0.194837	0.43915
0	C	0.663761	0.196708	0.943568
0	C	0.864015	0.297935	0.943309
0	C	0.361525	0.697804	0.599031
0	C	0.16407	0.796786	0.598708
0	H	0.375691	0.867845	0.128888
0	H	0.149456	0.621182	0.129016
0	H	0.653214	0.366625	0.404501
0	H	0.875612	0.122206	0.404352
0	H	0.651089	0.123488	0.909071
0	H	0.877517	0.370487	0.908797
0	H	0.373702	0.624783	0.633872
0	H	0.151376	0.869462	0.633468
0	C	0.365277	0.81966	0.028895
0	C	0.161706	0.667326	0.0290494
0	C	0.663454	0.320718	0.504755
0	C	0.86427	0.167437	0.504517
0	C	0.661508	0.171208	0.00911394
0	C	0.865191	0.324429	0.00877033
0	C	0.363607	0.670902	0.53363
0	C	0.162829	0.824098	0.533325
0	C	0.348766	0.724045	0.985817
0	C	0.179311	0.761848	0.985832
0	C	0.67938	0.225759	0.54844
0	C	0.847386	0.261895	0.548099
0	C	0.678061	0.26661	0.052306
0	C	0.847475	0.229972	0.0519767
0	C	0.347752	0.765928	0.489963
0	C	0.17972	0.729566	0.489795
0	H	0.350686	0.741858	0.934862
0	H	0.17827	0.742795	0.935031
0	H	0.6779	0.245299	0.599162
0	H	0.848135	0.242236	0.598827
0	H	0.676162	0.248536	0.103226
0	H	0.848471	0.249069	0.102775
0	H	0.349295	0.746487	0.439231
0	H	0.178998	0.749133	0.439056
0	C	0.329525	0.60729	0.00807023
0	C	0.198588	0.878801	0.0078324
0	C	0.697554	0.107711	0.526968
0	C	0.829133	0.379795	0.526504
0	C	0.697318	0.383448	0.0301837
0	C	0.828168	0.11305	0.029982
0	C	0.329543	0.883945	0.511462
0	C	0.197929	0.611669	0.511443
0	H	0.315843	0.534409	0.974059
0	H	0.213124	0.950759	0.973667
0	H	0.71054	0.035254	0.561501
0	H	0.815372	0.451913	0.56091
0	H	0.711028	0.45617	0.064278
0	H	0.813568	0.041121	0.0641332
0	H	0.316586	0.956429	0.476935
0	H	0.211666	0.539478	0.477074
0	C	0.384103	0.945263	0.00512544
0	C	0.142839	0.541567	0.00557116
0	C	0.645304	0.447328	0.527745
0	C	0.882666	0.0409919	0.527523
0	C	0.642629	0.0455405	0.0327446
0	C	0.884137	0.450138	0.0322609
0	C	0.381735	0.544294	0.510619
0	C	0.144461	0.950523	0.510265
0	H	0.346337	0.0152292	0.0113801
0	H	0.180201	0.47105	0.0128058
0	H	0.683803	0.51588	0.522473
0	H	0.84437	0.972089	0.522038
0	H	0.680361	0.975519	0.0264315
0	H	0.846569	0.52042	0.0255925
0	H	0.343199	0.475815	0.515802
0	H	0.182581	0.019677	0.516249
0	H	0.395636	0.946901	0.954399
0	H	0.132306	0.539142	0.954643
0	H	0.632469	0.449955	0.578108
0	H	0.895278	0.0383639	0.577946
0	H	0.63109	0.0437152	0.0834682
0	H	0.895212	0.452247	0.0830688
0	H	0.39463	0.541724	0.460272
0	H	0.132381	0.953287	0.459706
0	H	0.423556	0.985106	0.0307111
0	H	0.102691	0.503042	0.0304671
0	H	0.606853	0.48828	0.501016
0	H	0.921395	0.000443913	0.501056
0	H	0.603153	0.00590285	0.00712037
0	H	0.923939	0.489137	0.00696215
0	H	0.42012	0.503194	0.537394
0	H	0.10537	0.990623	0.536341
0	N	0.556233	0.367259	0.196263
0	N	0.97155	0.120976	0.197507
0	N	0.471522	0.863809	0.33283
0	N	0.0557231	0.626935	0.332678
0	N	0.470369	0.623765	0.842452
0	N	0.0554222	0.870809	0.840287
0	N	0.555379	0.127717	0.706019
0	N	0.971215	0.364771	0.70527
0	N	0.368079	0.349525	0.0983315
0	N	0.159349	0.13807	0.0985711
0	N	0.657514	0.848706	0.436499
0	N	0.870026	0.639391	0.436501
0	N	0.65868	0.641542	0.940152
0	N	0.867578	0.853853	0.939241
0	N	0.369446	0.142823	0.602118
0	N	0.156928	0.35227	0.601456
0	O	0.366576	0.0146079	0.19757
0	O	0.16084	0.475147	0.196686
0	O	0.661399	0.512193	0.338823
0	O	0.865025	0.975411	0.337348
0	O	0.660131	0.976095	0.840584
0	O	0.866021	0.516782	0.84131
0	O	0.365382	0.479336	0.699671
0	O	0.161774	0.0159705	0.700538
0	H	0.321038	0.0289022	0.191907
0	H	0.206357	0.460085	0.191343
0	H	0.706809	0.528277	0.344516
0	H	0.819609	0.959776	0.343102
0	H	0.705683	0.96193	0.846165
0	H	0.820508	0.531654	0.846877
0	H	0.319994	0.46328	0.693788
0	H	0.207208	0.0316658	0.695
0	O	0.454278	0.253626	0.298104
0	O	0.0745264	0.236472	0.298599
0	O	0.575805	0.748547	0.235205
0	O	0.951253	0.73967	0.235048
0	O	0.572258	0.73707	0.740387
0	O	0.952435	0.755111	0.739237
0	O	0.45088	0.242698	0.80349
0	O	0.0756654	0.251959	0.802832
0	O	0.283195	0.441294	0.164987
0	O	0.244291	0.0452578	0.164718
0	O	0.743664	0.938167	0.371108
0	O	0.783297	0.55096	0.371223
0	O	0.743698	0.550188	0.873486
0	O	0.782528	0.946371	0.873136
0	O	0.28327	0.0531545	0.667372
0	O	0.243583	0.440624	0.666829
0	O	0.259181	0.389354	0.0525449
0	O	0.268079	0.0973217	0.052226
0	O	0.766001	0.886911	0.484124
0	O	0.761745	0.601105	0.484465
0	O	0.767527	0.601744	0.986018
0	O	0.758865	0.89429	0.985653
0	O	0.260989	0.10466	0.554383
0	O	0.265293	0.390413	0.553626
0	S	0.302671	0.43792	0.0984678
0	S	0.224615	0.0490916	0.0982655
0	S	0.723417	0.935714	0.437411
0	S	0.804046	0.552674	0.43735
0	S	0.724133	0.553274	0.939977
0	S	0.802255	0.942651	0.939573
0	S	0.30356	0.0557648	0.60108
0	S	0.222933	0.438905	0.600668
