#******************************************
#
# CIF file created by Zeo++
# Zeo++ is an open source package to
# analyze microporous materials
#
#*******************************************

_cell_length_a		12.7689(0)
_cell_length_b		12.6782(0)
_cell_length_c		15.4799(0)
_cell_angle_alpha		90(0)
_cell_angle_beta		90(0)
_cell_angle_gamma		120.594(0)

_symmetry_space_group_name_H-M		'P1'
_symmetry_Int_Tables_number		1
_symmetry_cell_setting		Monoclinic

loop_
_symmetry_equiv_pos_as_xyz
'+x,+y,+z'

loop_
_atom_site_label
_atom_site_type_symbol
_atom_site_fract_x
_atom_site_fract_y
_atom_site_fract_z
0	O	0.395401	0.518251	0.984012
0	O	0.518778	0.89327	0.314614
0	O	0.140503	0.64175	0.649658
0	O	0.637375	0.516033	0.480715
0	O	0.514386	0.141725	0.820048
0	O	0.892415	0.392084	0.148184
0	H	0.313665	0.46346	0.0108971
0	H	0.573696	0.867721	0.341929
0	H	0.166355	0.722588	0.677852
0	H	0.718348	0.570131	0.508609
0	H	0.459155	0.16721	0.846985
0	H	0.866827	0.310797	0.175793
0	N	0.300562	0.395535	0.82587
0	N	0.639084	0.921663	0.15615
0	N	0.11128	0.734912	0.49299
0	N	0.733002	0.639489	0.3232
0	N	0.394678	0.112733	0.661239
0	N	0.921346	0.298763	0.991563
0	N	0.346374	0.25099	0.862458
0	N	0.784206	0.113933	0.193054
0	N	0.918306	0.680702	0.527783
0	N	0.686234	0.7835	0.359258
0	N	0.250378	0.919765	0.697406
0	N	0.114149	0.352489	0.0264786
0	C	0.290506	0.505709	0.825697
0	C	0.527254	0.801359	0.153888
0	C	0.232162	0.74793	0.492251
0	C	0.743037	0.529306	0.322877
0	C	0.505138	0.234175	0.660445
0	C	0.801003	0.286979	0.990416
0	H	0.365312	0.579834	0.864373
0	H	0.454809	0.802373	0.193279
0	H	0.231237	0.672444	0.529682
0	H	0.667879	0.454938	0.361094
0	H	0.57826	0.23353	0.699232
0	H	0.802569	0.363071	0.0274462
0	H	0.20367	0.486447	0.855561
0	H	0.543137	0.730044	0.181467
0	H	0.300143	0.835205	0.523051
0	H	0.829542	0.54831	0.353144
0	H	0.48739	0.303351	0.689729
0	H	0.732448	0.20012	0.0213327
0	H	0.294769	0.539679	0.759364
0	H	0.493724	0.774915	0.0870255
0	H	0.261997	0.745719	0.425642
0	H	0.739356	0.495858	0.256435
0	H	0.538797	0.263356	0.593919
0	H	0.771391	0.28891	0.92367
0	C	0.23371	0.295294	0.770891
0	C	0.739046	0.954552	0.102036
0	C	0.0773533	0.800302	0.438113
0	C	0.799769	0.739698	0.268172
0	C	0.295313	0.0789788	0.606315
0	C	0.95451	0.232068	0.937396
0	H	0.173452	0.293123	0.721688
0	H	0.740667	0.895426	0.0531876
0	H	0.136247	0.86322	0.38985
0	H	0.860202	0.742094	0.219205
0	H	0.293807	0.137868	0.557224
0	H	0.895249	0.16845	0.889595
0	C	0.263021	0.207245	0.794736
0	C	0.827501	0.0732069	0.126029
0	C	0.958255	0.765622	0.46065
0	C	0.769814	0.827387	0.291669
0	C	0.207354	0.959903	0.629836
0	C	0.0735183	0.26648	0.960017
0	H	0.228999	0.11698	0.768224
0	H	0.917734	0.129667	0.100106
0	H	0.901235	0.797146	0.433654
0	H	0.803549	0.917529	0.26499
0	H	0.117721	0.902781	0.603185
0	H	0.130064	0.234011	0.933577
0	C	0.366479	0.364642	0.882929
0	C	0.670405	0.0197882	0.213042
0	C	0.0131938	0.664788	0.549041
0	C	0.666498	0.67004	0.379955
0	C	0.363427	0.0146243	0.718151
0	C	0.0196393	0.369205	0.0473601
0	C	0.446738	0.446804	0.954739
0	C	0.589008	0.0175468	0.284867
0	C	0.0165285	0.586182	0.62123
0	C	0.586354	0.58795	0.451868
0	C	0.444464	0.0173693	0.790419
0	C	0.0162243	0.448129	0.119304
0	C	0.582936	0.539758	0.924076
0	C	0.496013	0.0590467	0.254057
0	C	0.974104	0.449466	0.591625
0	C	0.449909	0.495373	0.421564
0	C	0.537686	0.975789	0.760257
0	C	0.0577664	0.584345	0.0890936
0	C	0.658209	0.513738	0.992315
0	C	0.521112	0.161391	0.322056
0	C	0.873986	0.372342	0.661022
0	C	0.375327	0.521285	0.490492
0	C	0.511829	0.873345	0.828358
0	C	0.158631	0.662533	0.15772
0	H	0.752189	0.546536	0.971762
0	H	0.487666	0.221819	0.301323
0	H	0.813022	0.276696	0.641507
0	H	0.281219	0.488512	0.470396
0	H	0.545176	0.81268	0.807956
0	H	0.21935	0.757915	0.137446
0	C	0.649448	0.562425	0.0823821
0	C	0.47343	0.103371	0.412301
0	C	0.933662	0.385129	0.750698
0	C	0.384896	0.472479	0.580317
0	C	0.558823	0.931139	0.918756
0	C	0.100009	0.650996	0.247609
0	H	0.671072	0.658158	0.0804816
0	H	0.378915	0.0266229	0.41053
0	H	0.00911692	0.366936	0.748494
0	H	0.363542	0.376845	0.57809
0	H	0.6536	0.00740182	0.917486
0	H	0.0245206	0.669137	0.245574
0	H	0.714129	0.559577	0.128027
0	H	0.475056	0.171244	0.457469
0	H	0.867167	0.319528	0.797069
0	H	0.320446	0.475027	0.626332
0	H	0.556106	0.86287	0.964128
0	H	0.167181	0.717407	0.293438
0	C	0.516295	0.473322	0.109844
0	C	0.563252	0.0618253	0.44013
0	C	0.976789	0.518867	0.777044
0	C	0.518208	0.561737	0.607404
0	C	0.469352	0.973448	0.945849
0	C	0.0572069	0.517622	0.274758
0	H	0.46432	0.520356	0.117946
0	H	0.517382	0.961876	0.449183
0	H	0.0764316	0.573888	0.784275
0	H	0.570246	0.514765	0.615329
0	H	0.515636	0.0735462	0.954395
0	H	0.957658	0.462611	0.282452
0	H	0.511333	0.42811	0.171586
0	H	0.608672	0.104417	0.501388
0	H	0.937169	0.523457	0.839005
0	H	0.523471	0.607064	0.669146
0	H	0.423685	0.931597	0.00722238
0	H	0.0974604	0.513889	0.336641
0	C	0.463501	0.377966	0.0345162
0	C	0.65727	0.105288	0.364359
0	C	0.931554	0.567784	0.701585
0	C	0.570462	0.656938	0.531935
0	C	0.375694	0.92988	0.869888
0	C	0.101877	0.467818	0.199486
0	C	0.577492	0.373031	0.00524459
0	C	0.660974	0.224359	0.334679
0	C	0.812387	0.449874	0.673845
0	C	0.456321	0.662011	0.503364
0	C	0.371907	0.810664	0.840515
0	C	0.220718	0.585463	0.170867
0	H	0.611641	0.336571	0.054988
0	H	0.697096	0.29624	0.384186
0	H	0.74238	0.414395	0.724324
0	H	0.422869	0.698709	0.553391
0	H	0.335407	0.738801	0.890042
0	H	0.291166	0.621806	0.221022
0	H	0.562571	0.318706	0.946333
0	H	0.714454	0.264389	0.275598
0	H	0.771283	0.462072	0.615124
0	H	0.47077	0.716183	0.444421
0	H	0.318728	0.770677	0.781336
0	H	0.261334	0.572594	0.112186
0	C	0.609309	0.509457	0.833641
0	C	0.525823	0.116466	0.163605
0	C	0.915336	0.419748	0.501797
0	C	0.423111	0.526311	0.331485
0	C	0.50888	0.918615	0.669729
0	C	0.115321	0.613166	0.99892
0	H	0.590206	0.414857	0.829315
0	H	0.619677	0.193601	0.159186
0	H	0.83892	0.436103	0.497836
0	H	0.442487	0.621012	0.327507
0	H	0.41531	0.840847	0.665048
0	H	0.191228	0.596105	0.994375
0	H	0.705608	0.570059	0.81601
0	H	0.465313	0.151402	0.146211
0	H	0.879744	0.322722	0.48489
0	H	0.326674	0.466	0.314068
0	H	0.569972	0.884489	0.652484
0	H	0.151307	0.710225	0.981909
0	H	0.554448	0.5207	0.784113
0	H	0.514562	0.049813	0.113988
0	H	0.980543	0.475265	0.451409
0	H	0.477603	0.515179	0.281557
0	H	0.519646	0.98495	0.620036
0	H	0.0491016	0.557676	0.949011
0	C	0.611433	0.672308	0.924744
0	C	0.364716	0.95247	0.254846
0	C	0.0798814	0.425544	0.591839
0	C	0.421065	0.362714	0.421573
0	C	0.668995	0.0824752	0.761674
0	C	0.951746	0.607901	0.0897423
0	H	0.580527	0.693385	0.985174
0	H	0.344441	0.898913	0.314774
0	H	0.133242	0.459416	0.651703
0	H	0.452416	0.341152	0.481594
0	H	0.688701	0.135582	0.821788
0	H	0.898493	0.573571	0.149621
0	H	0.564275	0.689451	0.872112
0	H	0.347435	0.888353	0.201495
0	H	0.143267	0.473453	0.538469
0	H	0.467544	0.3457	0.368402
0	H	0.686587	0.146853	0.708486
0	H	0.888178	0.56026	0.036353
0	H	0.709018	0.736775	0.917617
0	H	0.300228	0.984726	0.248813
0	H	0.0476419	0.327707	0.585627
0	H	0.323355	0.298462	0.414839
0	H	0.733552	0.0502784	0.755786
0	H	0.983737	0.705671	0.0838662
0	C	0.35386	0.258208	0.0615438
0	C	0.776811	0.118054	0.391153
0	C	0.91947	0.675813	0.727624
0	C	0.680669	0.77659	0.558521
0	C	0.256232	0.917735	0.896161
0	C	0.114129	0.360122	0.226189
0	H	0.277439	0.269814	0.0805521
0	H	0.76636	0.029608	0.409848
0	H	0.00723069	0.754956	0.746862
0	H	0.757555	0.764822	0.575772
0	H	0.26723	0.00602424	0.915849
0	H	0.0264481	0.281181	0.245786
0	H	0.375652	0.217346	0.116349
0	H	0.816991	0.181459	0.446229
0	H	0.855666	0.652217	0.782038
0	H	0.660429	0.816814	0.614391
0	H	0.214673	0.853032	0.950369
0	H	0.178178	0.384382	0.280549
0	H	0.320839	0.189851	0.00937398
0	H	0.844831	0.155512	0.339084
0	H	0.883596	0.7065	0.674895
0	H	0.712239	0.845379	0.506672
0	H	0.189061	0.882159	0.843495
0	H	0.149758	0.328822	0.173708
