#******************************************
#
# CIF file created by Zeo++
# Zeo++ is an open source package to
# analyze microporous materials
#
#*******************************************

_cell_length_a		6.97188(0)
_cell_length_b		12.3812(0)
_cell_length_c		32.5538(0)
_cell_angle_alpha		90(0)
_cell_angle_beta		90(0)
_cell_angle_gamma		90(0)

_symmetry_space_group_name_H-M		'P1'
_symmetry_Int_Tables_number		1
_symmetry_cell_setting		Monoclinic

loop_
_symmetry_equiv_pos_as_xyz
'+x,+y,+z'

loop_
_atom_site_label
_atom_site_type_symbol
_atom_site_fract_x
_atom_site_fract_y
_atom_site_fract_z
0	Br	0.799693	0.793114	0.441079
0	Br	0.753169	0.214543	0.941208
0	Br	0.250767	0.289875	0.0600012
0	Br	0.297464	0.717556	0.559146
0	Br	0.863702	0.957144	0.885687
0	Br	0.665355	0.052922	0.384178
0	Br	0.181354	0.458721	0.616204
0	Br	0.394081	0.552113	0.116651
0	O	0.895346	0.852841	0.650606
0	O	0.654876	0.154876	0.150717
0	O	0.152765	0.352019	0.85062
0	O	0.394842	0.655214	0.349712
0	O	0.712217	0.343155	0.601766
0	O	0.872356	0.667947	0.100659
0	O	0.333665	0.845099	0.900428
0	O	0.190586	0.165305	0.40071
0	O	0.648565	0.496638	0.573597
0	O	0.920645	0.512921	0.0723377
0	O	0.394098	0.999202	0.928437
0	O	0.140171	0.0101152	0.428681
0	O	0.56931	0.815218	0.717836
0	O	0.994496	0.191802	0.215353
0	O	0.483703	0.315401	0.783888
0	O	0.0581378	0.691643	0.28502
0	O	0.458781	0.801274	0.656096
0	O	0.076115	0.203564	0.151458
0	O	0.593959	0.30111	0.845655
0	O	0.966379	0.703646	0.348236
0	N	0.827657	0.274244	0.714712
0	N	0.745592	0.737019	0.21315
0	N	0.221956	0.775328	0.787327
0	N	0.300169	0.236829	0.287595
0	N	0.810413	0.332773	0.678782
0	N	0.772886	0.67932	0.177328
0	N	0.238578	0.833881	0.823242
0	N	0.27538	0.178951	0.323394
0	H	0.814243	0.294336	0.649925
0	H	0.767362	0.717091	0.148385
0	H	0.234188	0.795631	0.852117
0	H	0.273951	0.217476	0.352245
0	N	0.681383	0.441411	0.603773
0	N	0.89489	0.568988	0.102622
0	N	0.363708	0.943399	0.898297
0	N	0.165365	0.0665599	0.39848
0	N	0.542729	0.764802	0.685997
0	N	0.0101816	0.241842	0.183113
0	N	0.509821	0.264926	0.815725
0	N	0.0379209	0.741706	0.317124
0	C	0.926297	0.963973	0.548408
0	C	0.633675	0.0428103	0.0486091
0	C	0.122977	0.461774	0.953033
0	C	0.417883	0.545129	0.452013
0	H	0.962468	0.0470785	0.556547
0	H	0.597371	0.959736	0.0567203
0	H	0.0868754	0.545053	0.94509
0	H	0.453857	0.461873	0.444046
0	C	0.893539	0.937529	0.507305
0	C	0.66931	0.0690955	0.00758892
0	C	0.156101	0.434761	0.994059
0	C	0.381988	0.57194	0.492962
0	H	0.909707	0.998788	0.483314
0	H	0.65647	0.00761735	0.983633
0	H	0.140302	0.495753	0.0181702
0	H	0.394211	0.510684	0.517025
0	C	0.843843	0.831278	0.497467
0	C	0.717126	0.17564	0.99777
0	C	0.205826	0.32837	0.00367861
0	C	0.334368	0.678639	0.502609
0	C	0.825834	0.751365	0.527339
0	C	0.735938	0.255374	0.0276977
0	C	0.223187	0.24879	0.973672
0	C	0.316439	0.758076	0.472548
0	H	0.785772	0.668588	0.519452
0	H	0.778252	0.337868	0.019889
0	H	0.263026	0.165826	0.981377
0	H	0.274409	0.840761	0.480177
0	C	0.862107	0.778535	0.568334
0	C	0.697688	0.228277	0.0686055
0	C	0.186511	0.27654	0.932739
0	C	0.355087	0.730463	0.43169
0	H	0.851693	0.716461	0.592097
0	H	0.708729	0.289985	0.0924938
0	H	0.196376	0.214698	0.908876
0	H	0.344928	0.792076	0.407745
0	C	0.914354	0.884288	0.579022
0	C	0.642682	0.122837	0.0791247
0	C	0.134602	0.382485	0.922258
0	C	0.409337	0.624779	0.421341
0	C	0.962819	0.907405	0.622921
0	C	0.588663	0.100684	0.122775
0	C	0.0860162	0.406491	0.878412
0	C	0.462041	0.601488	0.37768
0	C	0.104618	0.9943	0.631646
0	C	0.443968	0.015047	0.131156
0	C	0.945377	0.494204	0.870004
0	C	0.60582	0.515199	0.369396
0	C	0.26105	0.00338305	0.607741
0	C	0.287312	0.00694099	0.107282
0	C	0.788912	0.503119	0.893918
0	C	0.762701	0.50709	0.393222
0	H	0.279462	0.953628	0.580165
0	H	0.269745	0.0564306	0.0796108
0	H	0.769456	0.452208	0.921161
0	H	0.781728	0.557652	0.420578
0	C	0.424186	0.0779979	0.616491
0	C	0.122385	0.933807	0.116265
0	C	0.627302	0.57921	0.885659
0	C	0.925813	0.432243	0.384661
0	H	0.419555	0.146851	0.594553
0	H	0.122462	0.865454	0.0940745
0	H	0.634729	0.64765	0.907761
0	H	0.922862	0.364263	0.407016
0	H	0.561483	0.035447	0.610256
0	H	0.986506	0.978318	0.110625
0	H	0.48906	0.537837	0.892026
0	H	0.0629164	0.475377	0.3904
0	C	0.420675	0.119478	0.660891
0	C	0.127404	0.891196	0.160504
0	C	0.630332	0.621542	0.841375
0	C	0.920773	0.388921	0.340527
0	H	0.520656	0.18793	0.664489
0	H	0.0273704	0.822816	0.163794
0	H	0.531125	0.690474	0.838055
0	H	0.0197401	0.319993	0.337443
0	H	0.46915	0.0542958	0.681898
0	H	0.0793183	0.95582	0.181802
0	H	0.580628	0.557033	0.820211
0	H	0.970163	0.452897	0.319089
0	C	0.218088	0.154925	0.672678
0	C	0.329814	0.854565	0.172105
0	C	0.833161	0.656377	0.829539
0	C	0.717919	0.353162	0.32892
0	H	0.217987	0.190536	0.703897
0	H	0.330094	0.818779	0.203276
0	H	0.833225	0.692403	0.798387
0	H	0.717322	0.317022	0.297805
0	H	0.169157	0.219706	0.651618
0	H	0.377032	0.789674	0.150938
0	H	0.882972	0.720762	0.850686
0	H	0.669572	0.288651	0.350148
0	C	0.0794567	0.0581446	0.670886
0	C	0.469681	0.950647	0.170316
0	C	0.971065	0.559179	0.831043
0	C	0.57916	0.449815	0.330471
0	H	0.111905	0.00144847	0.696959
0	H	0.438312	0.00694558	0.196561
0	H	0.938237	0.503205	0.804766
0	H	0.611103	0.505444	0.304049
0	C	0.872102	0.0994344	0.676117
0	C	0.678178	0.909895	0.174711
0	C	0.178516	0.600394	0.825881
0	C	0.370446	0.409345	0.326113
0	H	0.826829	0.142183	0.64775
0	H	0.720752	0.867433	0.146089
0	H	0.223681	0.643183	0.854246
0	H	0.328257	0.366704	0.354728
0	H	0.773142	0.0287444	0.67872
0	H	0.776329	0.981266	0.17674
0	H	0.277617	0.529817	0.823279
0	H	0.272475	0.480762	0.324175
0	C	0.855965	0.169557	0.713823
0	C	0.703652	0.840264	0.21226
0	C	0.194445	0.670587	0.788181
0	C	0.343884	0.339854	0.288528
0	C	0.873746	0.116966	0.754755
0	C	0.684287	0.892268	0.253314
0	C	0.176795	0.618218	0.747219
0	C	0.364118	0.391587	0.247451
0	C	0.824648	0.00740691	0.759353
0	C	0.732547	0.00184598	0.258237
0	C	0.224218	0.508486	0.742554
0	C	0.317898	0.50137	0.2424
0	H	0.781395	0.958491	0.732763
0	H	0.779467	0.0507655	0.23193
0	H	0.267097	0.459184	0.769078
0	H	0.271024	0.550744	0.268599
0	C	0.828027	0.9592	0.798086
0	C	0.724574	0.0499595	0.296995
0	C	0.219957	0.460415	0.703781
0	C	0.328151	0.54929	0.203622
0	H	0.790388	0.87403	0.801214
0	H	0.763669	0.134854	0.30041
0	H	0.256376	0.375076	0.70061
0	H	0.29047	0.634364	0.200099
0	C	0.879024	0.0213837	0.832164
0	C	0.668812	0.987799	0.33072
0	C	0.169452	0.522937	0.669767
0	C	0.384379	0.486722	0.17004
0	C	0.936069	0.128759	0.828206
0	C	0.617999	0.879456	0.326571
0	C	0.114434	0.630661	0.673778
0	C	0.432202	0.37796	0.174279
0	H	0.980629	0.177014	0.854702
0	H	0.574582	0.830544	0.352976
0	H	0.0707146	0.67926	0.647306
0	H	0.475278	0.328636	0.14795
0	C	0.934497	0.176298	0.789215
0	C	0.624647	0.831973	0.287611
0	C	0.116896	0.678016	0.712781
0	C	0.423288	0.330705	0.213249
0	H	0.979263	0.260912	0.786205
0	H	0.584975	0.746659	0.284434
0	H	0.0735882	0.762854	0.715838
0	H	0.461031	0.245145	0.216531
0	C	0.735688	0.436293	0.681035
0	C	0.839927	0.574523	0.179862
0	C	0.313067	0.937422	0.820918
0	C	0.210954	0.0735678	0.320926
0	C	0.683162	0.492087	0.644018
0	C	0.890221	0.518312	0.142768
0	C	0.364583	0.993431	0.857935
0	C	0.164073	0.0168494	0.358113
0	C	0.62267	0.600905	0.646189
0	C	0.942716	0.408372	0.144697
0	C	0.426829	0.101863	0.855636
0	C	0.109453	0.907233	0.356022
0	H	0.583547	0.643482	0.617522
0	H	0.978709	0.365354	0.115921
0	H	0.465727	0.144605	0.884273
0	H	0.0738464	0.863959	0.384748
0	C	0.610214	0.652929	0.683837
0	C	0.951466	0.355271	0.182168
0	C	0.441018	0.153345	0.817915
0	C	0.0984483	0.854812	0.318446
0	C	0.658114	0.59744	0.720879
0	C	0.908337	0.411322	0.219376
0	C	0.39309	0.0978356	0.780894
0	C	0.141743	0.910858	0.281259
0	H	0.645367	0.64085	0.750152
0	H	0.920461	0.367489	0.248563
0	H	0.406888	0.140902	0.751571
0	H	0.129016	0.867288	0.252024
0	C	0.716423	0.491917	0.719446
0	C	0.855948	0.517927	0.218166
0	C	0.333305	0.992606	0.78244
0	C	0.194776	0.0173084	0.282574
0	H	0.74805	0.44713	0.747836
0	H	0.827938	0.563142	0.246655
0	H	0.301268	0.947806	0.754084
0	H	0.222829	0.0626159	0.254107
