#******************************************
#
# CIF file created by Zeo++
# Zeo++ is an open source package to
# analyze microporous materials
#
#*******************************************

_cell_length_a		13.1051(0)
_cell_length_b		13.1019(0)
_cell_length_c		13.0045(0)
_cell_angle_alpha		90(0)
_cell_angle_beta		90(0)
_cell_angle_gamma		90(0)

_symmetry_space_group_name_H-M		'P1'
_symmetry_Int_Tables_number		1
_symmetry_cell_setting		Monoclinic

loop_
_symmetry_equiv_pos_as_xyz
'+x,+y,+z'

loop_
_atom_site_label
_atom_site_type_symbol
_atom_site_fract_x
_atom_site_fract_y
_atom_site_fract_z
0	S	0.571737	0.216002	0.22667
0	S	0.416819	0.779375	0.730666
0	S	0.774554	0.572498	0.474938
0	S	0.215896	0.417419	0.981923
0	S	0.415124	0.210702	0.79958
0	S	0.572259	0.779973	0.298765
0	S	0.214878	0.572923	0.553627
0	S	0.77938	0.417266	0.0461972
0	O	0.561913	0.124489	0.286729
0	O	0.439062	0.870753	0.787938
0	O	0.866806	0.560249	0.533335
0	O	0.123807	0.430965	0.0404738
0	O	0.437613	0.119981	0.741484
0	O	0.548776	0.871428	0.242071
0	O	0.122281	0.561136	0.495676
0	O	0.870602	0.441831	0.989574
0	O	0.659513	0.28247	0.239866
0	O	0.322238	0.724888	0.750547
0	O	0.709466	0.660934	0.490211
0	O	0.279433	0.32781	0.996865
0	O	0.320651	0.265569	0.780204
0	O	0.667143	0.72627	0.27851
0	O	0.279849	0.661493	0.538536
0	O	0.726361	0.321983	0.0261481
0	N	0.551545	0.198827	0.0999077
0	N	0.438238	0.792649	0.60362
0	N	0.790499	0.553209	0.347802
0	N	0.200667	0.43681	0.854818
0	N	0.435718	0.196471	0.926424
0	N	0.551121	0.79276	0.425958
0	N	0.200047	0.552858	0.680793
0	N	0.792204	0.438592	0.173095
0	H	0.601287	0.241743	0.0519276
0	H	0.38984	0.74795	0.555647
0	H	0.747534	0.603637	0.300586
0	H	0.243373	0.386016	0.807564
0	H	0.387864	0.240807	0.975166
0	H	0.599821	0.748024	0.473651
0	H	0.243188	0.603313	0.727842
0	H	0.747036	0.39109	0.221399
0	F	0.469574	0.390709	0.226527
0	F	0.502478	0.595538	0.725583
0	F	0.599059	0.471246	0.474133
0	F	0.393196	0.514958	0.98403
0	F	0.498817	0.394438	0.807515
0	F	0.486981	0.595821	0.303939
0	F	0.391112	0.47372	0.550599
0	F	0.59465	0.498238	0.0534231
0	F	0.371442	0.263642	0.247912
0	F	0.611068	0.713388	0.749963
0	F	0.726074	0.373082	0.495958
0	F	0.267443	0.615861	0.999974
0	F	0.609538	0.278131	0.78518
0	F	0.378376	0.713497	0.278529
0	F	0.264883	0.373679	0.532605
0	F	0.7095	0.610164	0.0291346
0	F	0.467512	0.311555	0.369444
0	F	0.51152	0.67027	0.870675
0	F	0.67739	0.468993	0.617563
0	F	0.31085	0.52197	0.125031
0	F	0.512682	0.320907	0.66218
0	F	0.478809	0.670023	0.158639
0	F	0.30938	0.469374	0.409236
0	F	0.667346	0.511064	0.907564
0	C	0.465276	0.297598	0.26763
0	C	0.514786	0.686792	0.76929
0	C	0.691915	0.466855	0.515743
0	C	0.299388	0.522035	0.0228799
0	C	0.513505	0.303685	0.763453
0	C	0.474812	0.686929	0.259895
0	C	0.297335	0.467718	0.511349
0	C	0.68497	0.513557	0.0087665
0	C	0.534658	0.0937701	0.0586682
0	C	0.454571	0.896787	0.560093
0	C	0.89533	0.536119	0.305966
0	C	0.0959419	0.454351	0.813261
0	C	0.453668	0.0923942	0.969087
0	C	0.534841	0.896839	0.469703
0	C	0.0956546	0.535165	0.723415
0	C	0.896244	0.455318	0.216154
0	H	0.502413	0.0445879	0.122516
0	H	0.487209	0.947242	0.622921
0	H	0.944616	0.503795	0.36966
0	H	0.0468623	0.487246	0.877027
0	H	0.486606	0.0425363	0.905871
0	H	0.502103	0.947343	0.407033
0	H	0.0462884	0.50218	0.660139
0	H	0.946394	0.488389	0.153229
0	C	0.638255	0.0413962	0.0251313
0	C	0.350574	0.948141	0.526431
0	C	0.947821	0.63949	0.271781
0	C	0.0424722	0.351119	0.780242
0	C	0.350556	0.0393554	0.00292443
0	C	0.638828	0.94824	0.503352
0	C	0.0423922	0.638269	0.757275
0	C	0.948395	0.351532	0.249144
0	C	0.710827	0.0376301	0.118259
0	C	0.278356	0.952619	0.619871
0	C	0.953058	0.711914	0.364977
0	C	0.0387921	0.278652	0.873532
0	C	0.278723	0.0338849	0.909262
0	C	0.710804	0.953083	0.40972
0	C	0.0370608	0.710866	0.66423
0	C	0.953484	0.279645	0.155455
0	H	0.671597	0.00893227	0.187544
0	H	0.317049	0.983965	0.688312
0	H	0.983649	0.67278	0.433524
0	H	0.00983158	0.317531	0.943022
0	H	0.318546	0.00272284	0.841379
0	H	0.672078	0.985326	0.341697
0	H	0.00682749	0.671948	0.595415
0	H	0.985501	0.318466	0.0872784
0	H	0.745782	0.111614	0.134864
0	H	0.244924	0.878406	0.63858
0	H	0.879422	0.746379	0.383471
0	H	0.112775	0.243723	0.890203
0	H	0.244619	0.107563	0.890041
0	H	0.743755	0.878834	0.390211
0	H	0.11062	0.745795	0.646095
0	H	0.879486	0.246252	0.135982
0	H	0.77402	0.984638	0.10397
0	H	0.213932	0.00380148	0.604486
0	H	0.00544053	0.775339	0.34948
0	H	0.985986	0.215334	0.859002
0	H	0.214843	0.981921	0.924304
0	H	0.775532	0.00379063	0.425382
0	H	0.98441	0.774059	0.679878
0	H	0.00449649	0.215138	0.17115
0	C	0.615537	0.931225	0.991223
0	C	0.371765	0.0581175	0.490793
0	C	0.0577519	0.617276	0.236485
0	C	0.932216	0.37365	0.746397
0	C	0.3734	0.929637	0.0380848
0	C	0.617687	0.0581077	0.539292
0	C	0.932598	0.61571	0.792649
0	C	0.0581174	0.373453	0.285018
0	H	0.585395	0.885555	0.0552381
0	H	0.400407	0.105535	0.554263
0	H	0.105077	0.588988	0.300098
0	H	0.886139	0.403358	0.810359
0	H	0.403197	0.88332	0.974397
0	H	0.58972	0.105874	0.475815
0	H	0.885282	0.587022	0.729242
0	H	0.10539	0.402343	0.221511
0	H	0.684252	0.892548	0.963624
0	H	0.302439	0.0948069	0.461879
0	H	0.0946409	0.686309	0.207008
0	H	0.894272	0.304487	0.718656
0	H	0.304613	0.89145	0.0662983
0	H	0.686911	0.0944657	0.568888
0	H	0.895465	0.684721	0.821901
0	H	0.0952058	0.304336	0.313954
0	H	0.559294	0.927986	0.928253
0	H	0.428303	0.0612145	0.428233
0	H	0.0605947	0.560403	0.174138
0	H	0.928864	0.429529	0.683291
0	H	0.429784	0.926994	0.100859
0	H	0.560812	0.0612299	0.601635
0	H	0.929824	0.559141	0.855361
0	H	0.0608813	0.430117	0.347425
0	C	0.689007	0.0998482	0.936815
0	C	0.299993	0.888044	0.439014
0	C	0.889252	0.690481	0.183575
0	C	0.0990747	0.299438	0.691188
0	C	0.298765	0.0978484	0.0906436
0	C	0.689649	0.887945	0.590457
0	C	0.10043	0.689873	0.845453
0	C	0.889032	0.299616	0.336241
0	H	0.644534	0.0941965	0.865905
0	H	0.342387	0.895847	0.366943
0	H	0.895496	0.646819	0.112107
0	H	0.0900757	0.342045	0.619453
0	H	0.341027	0.0896865	0.162726
0	H	0.647322	0.895499	0.662607
0	H	0.092551	0.64693	0.917135
0	H	0.897586	0.341402	0.408517
0	H	0.765033	0.0697403	0.919764
0	H	0.222379	0.915106	0.424077
0	H	0.918946	0.766911	0.167322
0	H	0.069686	0.222508	0.676846
0	H	0.221722	0.0690716	0.105336
0	H	0.767186	0.915223	0.605395
0	H	0.0711468	0.766696	0.860585
0	H	0.916665	0.221999	0.350265
0	H	0.698867	0.181497	0.954847
0	H	0.294317	0.80603	0.456903
0	H	0.807565	0.69959	0.20136
0	H	0.181267	0.291226	0.706881
0	H	0.291397	0.179792	0.0734025
0	H	0.695522	0.806022	0.572283
0	H	0.182299	0.698317	0.828256
0	H	0.807017	0.293477	0.318764
