#******************************************
#
# CIF file created by Zeo++
# Zeo++ is an open source package to
# analyze microporous materials
#
#*******************************************

_cell_length_a		13.3925(0)
_cell_length_b		13.3925(0)
_cell_length_c		17.3933(0)
_cell_angle_alpha		90(0)
_cell_angle_beta		90(0)
_cell_angle_gamma		120(0)

_symmetry_space_group_name_H-M		'P1'
_symmetry_Int_Tables_number		1
_symmetry_cell_setting		Monoclinic

loop_
_symmetry_equiv_pos_as_xyz
'+x,+y,+z'

loop_
_atom_site_label
_atom_site_type_symbol
_atom_site_fract_x
_atom_site_fract_y
_atom_site_fract_z
0	Si	0.811921	0.307361	0.877441
0	Si	0.692641	0.504562	0.877441
0	Si	0.49544	0.188081	0.877441
0	Si	0.188081	0.692643	0.12256
0	Si	0.307361	0.495442	0.12256
0	Si	0.504562	0.811923	0.12256
0	Si	0.478588	0.640696	0.210773
0	Si	0.359308	0.837896	0.210773
0	Si	0.162108	0.521415	0.210773
0	Si	0.854749	0.0259734	0.455893
0	Si	0.974029	0.828777	0.455893
0	Si	0.171227	0.145254	0.455893
0	Si	0.145255	0.97403	0.544107
0	Si	0.0259738	0.171227	0.544107
0	Si	0.828775	0.85475	0.544107
0	Si	0.521414	0.359308	0.789229
0	Si	0.640694	0.162107	0.789229
0	Si	0.837894	0.478589	0.789229
0	O	0.896649	0.245761	0.894649
0	O	0.754241	0.650892	0.894649
0	O	0.34911	0.103351	0.894649
0	O	0.103352	0.754243	0.10535
0	O	0.245761	0.349111	0.10535
0	O	0.650893	0.896656	0.10535
0	O	0.563318	0.579096	0.227983
0	O	0.42091	0.98423	0.227983
0	O	0.0157776	0.436685	0.227983
0	O	0.770017	0.0875739	0.438683
0	O	0.912428	0.682446	0.438683
0	O	0.317557	0.229984	0.438683
0	O	0.229983	0.912426	0.561317
0	O	0.0875739	0.317558	0.561317
0	O	0.682445	0.770019	0.561317
0	O	0.436684	0.420908	0.772016
0	O	0.579093	0.0157768	0.772016
0	O	0.984225	0.563319	0.772016
0	O	0.772631	0.329781	0.951527
0	O	0.670221	0.442851	0.951527
0	O	0.557151	0.227371	0.951527
0	O	0.227371	0.670223	0.04847
0	O	0.329781	0.557152	0.04847
0	O	0.442851	0.772633	0.04847
0	O	0.439298	0.663116	0.284863
0	O	0.336888	0.776186	0.284863
0	O	0.223818	0.560706	0.284863
0	O	0.894037	0.00355334	0.381803
0	O	0.996446	0.890483	0.381803
0	O	0.109517	0.105964	0.381803
0	O	0.105964	0.996448	0.618198
0	O	0.00355349	0.109517	0.618198
0	O	0.890487	0.894044	0.618198
0	O	0.560704	0.336888	0.715137
0	O	0.663114	0.223817	0.715137
0	O	0.776185	0.439298	0.715137
0	O	0.871341	0.397292	0.818833
0	O	0.602711	0.474052	0.818833
0	O	0.525951	0.12866	0.818833
0	O	0.128661	0.602712	0.18117
0	O	0.397291	0.525952	0.18117
0	O	0.474051	0.871342	0.18117
0	O	0.538008	0.730626	0.152163
0	O	0.269379	0.807386	0.152163
0	O	0.192617	0.461995	0.152163
0	O	0.79533	0.93605	0.514503
0	O	0.0639581	0.859287	0.514503
0	O	0.140717	0.204674	0.514503
0	O	0.204674	0.0639569	0.485497
0	O	0.936045	0.140718	0.485497
0	O	0.859285	0.795329	0.485497
0	O	0.461994	0.269378	0.847838
0	O	0.730624	0.192618	0.847838
0	O	0.807384	0.538008	0.847838
0	C	0.96339	0.346881	0.928311
0	C	0.653121	0.616512	0.928311
0	C	0.38349	0.0366102	0.928311
0	C	0.0366111	0.653123	0.0716902
0	C	0.346881	0.383491	0.0716902
0	C	0.61651	0.963391	0.0716902
0	C	0.630058	0.680216	0.261643
0	C	0.319787	0.949846	0.261643
0	C	0.0501572	0.369944	0.261643
0	C	0.703277	0.986455	0.405023
0	C	0.0135483	0.716826	0.405023
0	C	0.283177	0.296724	0.405023
0	C	0.296724	0.0135468	0.594976
0	C	0.986457	0.283178	0.594976
0	C	0.716825	0.70328	0.594976
0	C	0.369943	0.319788	0.738359
0	C	0.680214	0.0501569	0.738359
0	C	0.949844	0.630059	0.738359
0	H	0.963561	0.429642	0.934371
0	H	0.57036	0.533922	0.934371
0	H	0.46608	0.0364401	0.934371
0	H	0.0364414	0.570363	0.0656299
0	H	0.429641	0.466082	0.0656299
0	H	0.533922	0.963563	0.0656299
0	H	0.630228	0.762976	0.267703
0	H	0.237027	0.867255	0.267703
0	H	0.132747	0.369775	0.267703
0	H	0.70311	0.903701	0.398963
0	H	0.0963085	0.799416	0.398963
0	H	0.200587	0.296894	0.398963
0	H	0.296894	0.0963072	0.601036
0	H	0.903691	0.200587	0.601036
0	H	0.799415	0.703109	0.601036
0	H	0.369774	0.237027	0.732299
0	H	0.762974	0.132747	0.732299
0	H	0.867254	0.630229	0.732299
0	C	0.970441	0.317331	0.01267
0	C	0.682671	0.653113	0.01267
0	C	0.34689	0.0295601	0.01267
0	C	0.0295609	0.682672	0.987328
0	C	0.317331	0.346892	0.987328
0	C	0.653112	0.970444	0.987328
0	C	0.637108	0.650666	0.346003
0	C	0.349338	0.986446	0.346003
0	C	0.0135573	0.362895	0.346003
0	C	0.696226	0.0160034	0.320663
0	C	0.983998	0.680226	0.320663
0	C	0.319778	0.303775	0.320663
0	C	0.303774	0.983998	0.679336
0	C	0.016004	0.319778	0.679336
0	C	0.680225	0.69623	0.679336
0	C	0.362894	0.349338	0.653999
0	C	0.650663	0.0135568	0.653999
0	C	0.986445	0.637109	0.653999
0	H	0.888741	0.290701	0.04387
0	H	0.709301	0.598042	0.04387
0	H	0.40196	0.11126	0.04387
0	H	0.111262	0.709303	0.956133
0	H	0.2907	0.401962	0.956133
0	H	0.598041	0.888741	0.956133
0	H	0.555408	0.624036	0.377203
0	H	0.375969	0.931377	0.377203
0	H	0.0686271	0.444595	0.377203
0	H	0.777927	0.0426335	0.289463
0	H	0.957368	0.735296	0.289463
0	H	0.264707	0.222074	0.289463
0	H	0.222076	0.957373	0.710538
0	H	0.0426341	0.264707	0.710538
0	H	0.735294	0.777929	0.710538
0	H	0.444594	0.375968	0.622797
0	H	0.624033	0.0686269	0.622797
0	H	0.931374	0.555409	0.622797
0	H	0.0399309	0.393691	0.04253
0	H	0.606311	0.646243	0.04253
0	H	0.353761	0.960071	0.04253
0	H	0.960071	0.606312	0.957472
0	H	0.393691	0.353762	0.957472
0	H	0.64624	0.0399302	0.957472
0	H	0.706598	0.727026	0.375863
0	H	0.272977	0.979574	0.375863
0	H	0.0204269	0.293404	0.375863
0	H	0.626738	0.939646	0.290803
0	H	0.0603583	0.687096	0.290803
0	H	0.312908	0.373265	0.290803
0	H	0.373264	0.0603569	0.709198
0	H	0.939646	0.312908	0.709198
0	H	0.687095	0.626739	0.709198
0	H	0.293404	0.272978	0.624137
0	H	0.727024	0.0204267	0.624137
0	H	0.979575	0.706599	0.624137
0	H	0.99093	0.246621	0.01675
0	H	0.753382	0.744313	0.01675
0	H	0.25569	0.00907003	0.01675
0	H	0.00907171	0.753383	0.983252
0	H	0.24662	0.255691	0.983252
0	H	0.74431	0.99093	0.983252
0	H	0.657598	0.579956	0.350083
0	H	0.420047	0.0776437	0.350083
0	H	0.922354	0.342405	0.350083
0	H	0.675737	0.0867135	0.316583
0	H	0.913288	0.589026	0.316583
0	H	0.410978	0.324265	0.316583
0	H	0.324264	0.913288	0.683418
0	H	0.0867145	0.410978	0.683418
0	H	0.589024	0.675739	0.683418
0	H	0.342404	0.420048	0.649917
0	H	0.579954	0.922359	0.649917
0	H	0.077645	0.657599	0.649917
0	C	0.078451	0.393791	0.885761
0	C	0.606211	0.684662	0.885761
0	C	0.315343	0.921557	0.885761
0	C	0.921551	0.606212	0.11424
0	C	0.393791	0.315341	0.11424
0	C	0.68466	0.0784503	0.11424
0	C	0.745118	0.727126	0.219094
0	C	0.272876	0.0179934	0.219094
0	C	0.98201	0.254884	0.219094
0	C	0.58822	0.939551	0.447573
0	C	0.060458	0.648676	0.447573
0	C	0.351327	0.411785	0.447573
0	C	0.411784	0.0604569	0.552427
0	C	0.939547	0.351328	0.552427
0	C	0.648674	0.588219	0.552427
0	C	0.254883	0.272878	0.780904
0	C	0.727127	0.982014	0.780904
0	C	0.0179951	0.74512	0.780904
0	H	0.147501	0.468782	0.917043
0	H	0.531221	0.678723	0.917043
0	H	0.321282	0.852503	0.917043
0	H	0.852501	0.531222	0.0829601
0	H	0.468781	0.321281	0.0829601
0	H	0.67872	0.1475	0.0829601
0	H	0.814169	0.802117	0.250373
0	H	0.197886	0.0120533	0.250373
0	H	0.987948	0.185834	0.250373
0	H	0.519168	0.864557	0.416293
0	H	0.135448	0.654616	0.416293
0	H	0.345387	0.480835	0.416293
0	H	0.480834	0.135447	0.583708
0	H	0.864554	0.345388	0.583708
0	H	0.654614	0.519168	0.583708
0	H	0.185833	0.197888	0.749628
0	H	0.802114	0.987946	0.749628
0	H	0.0120547	0.814169	0.749628
0	H	0.073541	0.422491	0.826841
0	H	0.577511	0.651053	0.826841
0	H	0.348952	0.926463	0.826841
0	H	0.926461	0.577512	0.17316
0	H	0.422491	0.348952	0.17316
0	H	0.65105	0.0735403	0.17316
0	H	0.740208	0.755826	0.160173
0	H	0.244178	0.984386	0.160173
0	H	0.0156169	0.259795	0.160173
0	H	0.593129	0.910848	0.506493
0	H	0.089158	0.682286	0.506493
0	H	0.317717	0.406875	0.506493
0	H	0.406874	0.0891569	0.493507
0	H	0.910847	0.317718	0.493507
0	H	0.682285	0.593129	0.493507
0	H	0.259793	0.244178	0.839829
0	H	0.755824	0.0156167	0.839829
0	H	0.984384	0.74021	0.839829
0	H	0.1041	0.326831	0.882397
0	H	0.673172	0.777273	0.882397
0	H	0.222733	0.895906	0.882397
0	H	0.895902	0.673173	0.1176
0	H	0.32683	0.222731	0.1176
0	H	0.77727	0.104101	0.1176
0	H	0.770768	0.660166	0.215733
0	H	0.339836	0.110603	0.215733
0	H	0.889394	0.229234	0.215733
0	H	0.562567	0.00650336	0.450933
0	H	0.993497	0.556066	0.450933
0	H	0.443938	0.437435	0.450933
0	H	0.437435	0.993499	0.549067
0	H	0.00650473	0.443939	0.549067
0	H	0.556065	0.562569	0.549067
0	H	0.229234	0.339838	0.784268
0	H	0.660164	0.889397	0.784268
0	H	0.110605	0.77077	0.784268
0	Si	0.666671	0.333331	0.962509
0	Si	0.333331	0.666672	0.03749
0	Si	0.333338	0.666666	0.295843
0	Si	0.999994	3.3281e-06	0.370823
0	Si	0	2.22045e-16	0.370823
0	Si	6.67533e-06	3.33759e-06	0.370823
0	Si	5.22681e-06	2.22045e-16	0.629179
0	Si	3.32831e-06	6.67604e-06	0.629179
0	Si	0.999995	2.22045e-16	0.629179
0	Si	0.666664	0.333338	0.704156
0	O	0.666671	0.333331	0.0610701
0	O	0.333331	0.666672	0.938931
0	O	0.333338	0.666666	0.394404
0	O	0.999994	3.3281e-06	0.272263
0	O	0	2.22045e-16	0.272263
0	O	6.67533e-06	3.33759e-06	0.272263
0	O	5.22681e-06	2.22045e-16	0.727734
0	O	3.32831e-06	6.67604e-06	0.727734
0	O	0.999995	2.22045e-16	0.727734
0	O	0.666664	0.333338	0.605595
