#******************************************
#
# CIF file created by Zeo++
# Zeo++ is an open source package to
# analyze microporous materials
#
#*******************************************

_cell_length_a		13.9089(0)
_cell_length_b		13.9562(0)
_cell_length_c		8.10812(0)
_cell_angle_alpha		90(0)
_cell_angle_beta		90(0)
_cell_angle_gamma		120.062(0)

_symmetry_space_group_name_H-M		'P1'
_symmetry_Int_Tables_number		1
_symmetry_cell_setting		Monoclinic

loop_
_symmetry_equiv_pos_as_xyz
'+x,+y,+z'

loop_
_atom_site_label
_atom_site_type_symbol
_atom_site_fract_x
_atom_site_fract_y
_atom_site_fract_z
0	O	0.965678	0.525684	0.397288
0	O	0.46971	0.436063	0.397538
0	O	0.560772	0.0313497	0.398102
0	O	0.032014	0.468176	0.747613
0	O	0.52794	0.557573	0.748212
0	O	0.437085	0.962399	0.747237
0	N	0.946251	0.36405	0.293081
0	N	0.63248	0.577764	0.293273
0	N	0.417057	0.0481875	0.292595
0	N	0.0514456	0.629684	0.852292
0	N	0.365114	0.415857	0.852237
0	N	0.580682	0.945452	0.852875
0	N	0.208402	0.418202	0.0935525
0	N	0.577914	0.784306	0.0929131
0	N	0.211982	0.785522	0.0929999
0	N	0.789257	0.575431	0.0518365
0	N	0.41991	0.209416	0.0524797
0	N	0.785734	0.208239	0.0522798
0	C	0.780375	0.375168	0.36243
0	C	0.62003	0.400992	0.362644
0	C	0.593629	0.215179	0.362326
0	C	0.217329	0.618575	0.782855
0	C	0.377598	0.592645	0.782786
0	C	0.404097	0.778502	0.783067
0	C	0.709476	0.260314	0.363533
0	C	0.735307	0.445523	0.363864
0	C	0.549123	0.285581	0.363578
0	C	0.288251	0.733409	0.781757
0	C	0.262335	0.54816	0.781518
0	C	0.448546	0.70806	0.781833
0	C	0.904538	0.42925	0.355402
0	C	0.566332	0.470993	0.355661
0	C	0.52433	0.0913709	0.355533
0	C	0.0931309	0.564491	0.789749
0	C	0.431288	0.522633	0.789878
0	C	0.473457	0.902317	0.789885
0	C	0.0622167	0.403409	0.271382
0	C	0.593135	0.653879	0.271049
0	C	0.342366	0.932118	0.270864
0	C	0.935472	0.59032	0.873928
0	C	0.404427	0.3397	0.874379
0	C	0.655403	0.0615404	0.874506
0	C	0.0999943	0.385464	0.118813
0	C	0.610977	0.709229	0.118296
0	C	0.28706	0.893798	0.118091
0	C	0.897672	0.608221	0.0265064
0	C	0.38673	0.284397	0.0271328
0	C	0.710728	0.0999733	0.0272874
0	C	0.28241	0.470227	0.217385
0	C	0.525505	0.805661	0.21674
0	C	0.190459	0.71206	0.217077
0	C	0.715262	0.523402	0.927975
0	C	0.472234	0.188047	0.928493
0	C	0.807215	0.281632	0.928018
0	C	0.250278	0.48971	0.372086
0	C	0.506108	0.754303	0.371589
0	C	0.242517	0.744556	0.371545
0	C	0.747408	0.504005	0.773257
0	C	0.491419	0.239296	0.773607
0	C	0.755218	0.249043	0.773618
0	C	0.138847	0.455683	0.399882
0	C	0.540567	0.677645	0.399622
0	C	0.319271	0.855856	0.399161
0	C	0.858856	0.538079	0.74541
0	C	0.456847	0.315886	0.745665
0	C	0.678476	0.137689	0.746105
0	H	0.892744	0.288694	0.236504
0	H	0.708095	0.599712	0.236855
0	H	0.393602	0.100349	0.236101
0	H	0.104954	0.705025	0.908912
0	H	0.289434	0.393861	0.908461
0	H	0.604153	0.893286	0.909334
0	H	0.742699	0.203491	0.365117
0	H	0.792366	0.535592	0.365558
0	H	0.458828	0.252445	0.365065
0	H	0.255042	0.790243	0.780133
0	H	0.20525	0.4581	0.779829
0	H	0.538841	0.741161	0.780382
0	H	0.0427791	0.344041	0.0156474
0	H	0.652377	0.693504	0.015094
0	H	0.302766	0.950561	0.0145947
0	H	0.954893	0.649652	0.129689
0	H	0.345317	0.30009	0.130372
0	H	0.695025	0.0432268	0.13082
0	H	0.369632	0.495816	0.191802
0	H	0.499326	0.866497	0.190858
0	H	0.128878	0.625039	0.191855
0	H	0.628032	0.497781	0.953569
0	H	0.498456	0.127234	0.954305
0	H	0.86878	0.368674	0.953206
0	H	0.31269	0.529718	0.468349
0	H	0.465766	0.776147	0.467846
0	H	0.220829	0.682518	0.46787
0	H	0.685002	0.464021	0.676983
0	H	0.531643	0.217411	0.677231
0	H	0.776865	0.310992	0.677153
0	H	0.109337	0.467522	0.519565
0	H	0.528817	0.63631	0.519238
0	H	0.361	0.885484	0.518636
0	H	0.888347	0.526275	0.625691
0	H	0.46844	0.357132	0.625996
0	H	0.636785	0.108012	0.626625
