#******************************************
#
# CIF file created by Zeo++
# Zeo++ is an open source package to
# analyze microporous materials
#
#*******************************************

_cell_length_a		16.3512(0)
_cell_length_b		17.2197(0)
_cell_length_c		18.4072(0)
_cell_angle_alpha		103.073(0)
_cell_angle_beta		112.226(0)
_cell_angle_gamma		102.875(0)

_symmetry_space_group_name_H-M		'P1'
_symmetry_Int_Tables_number		1
_symmetry_cell_setting		Triclinic

loop_
_symmetry_equiv_pos_as_xyz
'+x,+y,+z'

loop_
_atom_site_label
_atom_site_type_symbol
_atom_site_fract_x
_atom_site_fract_y
_atom_site_fract_z
0	C	0.795933	0.491453	0.599108
0	C	0.202137	0.510736	0.395935
0	C	0.875075	0.462116	0.648115
0	C	0.122995	0.540074	0.346938
0	H	0.916795	0.454302	0.612102
0	H	0.0812705	0.547895	0.382947
0	C	0.935875	0.542661	0.725236
0	C	0.0621823	0.459535	0.269826
0	C	0.909329	0.609339	0.710654
0	C	0.0887018	0.392845	0.28441
0	C	0.821988	0.577429	0.63168
0	C	0.176067	0.42476	0.363377
0	C	0.696748	0.433441	0.535962
0	C	0.301333	0.568753	0.459085
0	C	0.84449	0.377565	0.664187
0	C	0.153585	0.624617	0.330855
0	C	0.000483511	0.544626	0.810563
0	C	0.997565	0.457562	0.184499
0	C	0.947706	0.698737	0.773277
0	C	0.0503121	0.303448	0.22179
0	C	0.762483	0.631873	0.605164
0	C	0.235562	0.370306	0.389892
0	C	0.672746	0.367628	0.57619
0	C	0.325343	0.634564	0.418851
0	C	0.736593	0.344641	0.632036
0	C	0.261484	0.657533	0.362998
0	C	0.876725	0.395822	0.758361
0	C	0.121333	0.606347	0.236676
0	C	0.944397	0.467011	0.822243
0	C	0.0536547	0.535165	0.172804
0	C	0.995219	0.617047	0.874599
0	C	0.00281083	0.385139	0.120464
0	C	0.972025	0.685112	0.858368
0	C	0.025983	0.317065	0.136694
0	C	0.86097	0.726311	0.760929
0	C	0.137033	0.275854	0.234129
0	C	0.779796	0.696627	0.687697
0	C	0.21822	0.305541	0.307354
0	C	0.660879	0.572281	0.575359
0	C	0.337176	0.429896	0.41969
0	C	0.632528	0.485413	0.5458
0	C	0.365541	0.516767	0.449248
0	C	0.585228	0.364557	0.580935
0	C	0.412857	0.637625	0.414095
0	C	0.714886	0.315082	0.692964
0	C	0.283168	0.687063	0.302043
0	C	0.801402	0.346807	0.77106
0	C	0.196653	0.655345	0.223958
0	C	0.939165	0.49292	0.900796
0	C	0.0588459	0.509241	0.094232
0	C	0.970043	0.585442	0.932996
0	C	0.0279586	0.416722	0.0620434
0	C	0.923645	0.724146	0.899456
0	C	0.0743264	0.278009	0.0955869
0	C	0.855381	0.749188	0.839779
0	C	0.142583	0.252954	0.15526
0	C	0.690585	0.689247	0.690476
0	C	0.30742	0.312906	0.30456
0	C	0.618174	0.613008	0.622262
0	C	0.379847	0.389147	0.372768
0	C	0.560705	0.436776	0.562448
0	C	0.437361	0.565394	0.432581
0	C	0.562029	0.333553	0.636392
0	C	0.436028	0.668599	0.358606
0	C	0.629559	0.307474	0.694887
0	C	0.368488	0.694664	0.300107
0	C	0.79762	0.36896	0.846698
0	C	0.200396	0.633181	0.148302
0	C	0.869318	0.445308	0.914237
0	C	0.128689	0.556841	0.0807723
0	C	0.927795	0.624758	0.97574
0	C	0.0701653	0.377379	0.0192742
0	C	0.903848	0.697311	0.958459
0	C	0.0940905	0.304814	0.0365539
0	C	0.771589	0.746492	0.843187
0	C	0.226363	0.255637	0.151837
0	C	0.685451	0.715204	0.7652
0	C	0.312514	0.286931	0.229818
0	C	0.545691	0.567007	0.633825
0	C	0.452322	0.435134	0.361183
0	C	0.515668	0.474809	0.602606
0	C	0.48236	0.527334	0.392399
0	C	0.514897	0.37425	0.679209
0	C	0.483118	0.627872	0.315766
0	C	0.625343	0.332197	0.774836
0	C	0.372667	0.669922	0.22014
0	C	0.70748	0.362322	0.848884
0	C	0.29053	0.639806	0.146098
0	C	0.824321	0.486879	0.959004
0	C	0.173651	0.515247	0.0359823
0	C	0.852774	0.574501	0.989002
0	C	0.145185	0.427624	0.00599496
0	C	0.814182	0.692846	0.961037
0	C	0.183752	0.309267	0.0339673
0	C	0.749722	0.716775	0.904777
0	C	0.248205	0.285321	0.0902192
0	C	0.609218	0.665985	0.777703
0	C	0.388735	0.336134	0.217293
0	C	0.541085	0.593499	0.713521
0	C	0.456884	0.408623	0.281469
0	C	0.492438	0.443296	0.662738
0	C	0.505559	0.558818	0.332237
0	C	0.554612	0.373949	0.765239
0	C	0.443377	0.628145	0.229727
0	C	0.723937	0.435882	0.918018
0	C	0.274046	0.566241	0.0769585
0	C	0.782244	0.616442	0.979647
0	C	0.215691	0.385658	0.0153406
0	C	0.649156	0.666514	0.864017
0	C	0.348778	0.335582	0.130972
0	C	0.508543	0.516862	0.731665
0	C	0.489422	0.485246	0.263307
0	C	0.570198	0.443591	0.830398
0	C	0.427764	0.558497	0.164566
0	C	0.657267	0.475393	0.909084
0	C	0.340692	0.526702	0.0858885
0	C	0.687282	0.568386	0.940764
0	C	0.310661	0.433711	0.0542179
0	C	0.618875	0.594116	0.8813
0	C	0.37906	0.407965	0.113671
0	C	0.546522	0.517052	0.813083
0	C	0.45143	0.485031	0.181883
0	C	0.683744	0.397559	0.447457
0	C	0.314297	0.604616	0.547579
0	C	0.750966	0.441892	0.427626
0	C	0.247067	0.560279	0.567396
0	H	0.804264	0.502383	0.472872
0	H	0.193784	0.499787	0.522149
0	C	0.751934	0.412063	0.35126
0	C	0.246062	0.590102	0.643747
0	H	0.804154	0.449282	0.337775
0	H	0.193826	0.552882	0.657211
0	C	0.685524	0.334271	0.291342
0	C	0.312481	0.667896	0.703686
0	C	0.687567	0.299267	0.212765
0	C	0.310428	0.702901	0.782256
0	H	0.741676	0.336687	0.20125
0	H	0.256303	0.665492	0.793758
0	C	0.625109	0.223152	0.155806
0	C	0.372912	0.77901	0.839233
0	H	0.627062	0.196933	0.0968707
0	H	0.370935	0.805228	0.898157
0	C	0.553243	0.17371	0.171434
0	C	0.444794	0.828449	0.823618
0	C	0.490272	0.0930614	0.114642
0	C	0.507788	0.909096	0.880423
0	H	0.49563	0.0660379	0.0577828
0	H	0.502417	0.936119	0.937276
0	C	0.420475	0.0475452	0.130207
0	C	0.577576	0.954613	0.864847
0	H	0.371745	0.985216	0.0852964
0	H	0.626324	0.016941	0.909758
0	C	0.411644	0.0819191	0.202049
0	C	0.586361	0.920243	0.792977
0	H	0.355947	0.0467027	0.213023
0	H	0.642038	0.955465	0.781979
0	C	0.47421	0.162072	0.260203
0	C	0.523805	0.840095	0.734837
0	C	0.465945	0.20147	0.334286
0	C	0.532064	0.800707	0.660746
0	H	0.404848	0.169257	0.340721
0	H	0.59315	0.832934	0.654302
0	C	0.529966	0.276652	0.392103
0	C	0.468066	0.725522	0.602942
0	H	0.518225	0.305999	0.444386
0	H	0.479787	0.696175	0.550647
0	C	0.611286	0.322573	0.385194
0	C	0.386751	0.679603	0.609852
0	C	0.61492	0.289073	0.308316
0	C	0.383087	0.713097	0.686715
0	C	0.547269	0.208269	0.246472
0	C	0.450746	0.7939	0.748568
0	C	0.868411	0.306304	0.619475
0	C	0.129649	0.695873	0.375561
0	C	0.828696	0.284795	0.531921
0	C	0.169379	0.717394	0.463119
0	H	0.793178	0.324278	0.502617
0	H	0.204888	0.677901	0.492418
0	C	0.829949	0.212973	0.480273
0	C	0.168098	0.789204	0.514763
0	H	0.798032	0.1985	0.412753
0	H	0.200012	0.803677	0.582282
0	C	0.869336	0.157342	0.514601
0	C	0.128674	0.844808	0.480422
0	C	0.863761	0.0777622	0.46167
0	C	0.134234	0.924386	0.533352
0	H	0.829356	0.0632331	0.394141
0	H	0.168636	0.938915	0.60088
0	C	0.89851	0.0226569	0.494749
0	C	0.099463	0.979473	0.500261
0	H	0.892962	0.961862	0.455115
0	H	0.104977	0.0402586	0.539889
0	C	0.944455	0.0422603	0.584573
0	C	0.0535418	0.959871	0.410438
0	C	0.979602	0.985043	0.619596
0	C	0.0183962	0.0170865	0.375413
0	H	0.970896	0.923855	0.578661
0	H	0.0270782	0.0782656	0.41635
0	C	0.0246438	0.00564252	0.706154
0	C	0.973384	0.9965	0.288857
0	H	0.0512461	0.960476	0.732656
0	H	0.946772	0.0416563	0.262347
0	C	0.0356573	0.0834702	0.759251
0	C	0.962369	0.918672	0.235764
0	H	0.0712793	0.098992	0.826819
0	H	0.926758	0.903154	0.168195
0	C	0.000302547	0.141343	0.725887
0	C	0.997697	0.860786	0.269128
0	C	0.0105411	0.22297	0.778537
0	C	0.987456	0.779158	0.216486
0	H	0.0513647	0.240559	0.846029
0	H	0.946637	0.761568	0.148993
0	C	0.971598	0.276184	0.745525
0	C	0.0263766	0.72593	0.249498
0	H	0.98429	0.337792	0.78813
0	H	0.0136576	0.66431	0.2069
0	C	0.916735	0.255905	0.656165
0	C	0.0812728	0.746229	0.338859
0	C	0.913631	0.179183	0.602908
0	C	0.0843647	0.822953	0.392114
0	C	0.953299	0.121048	0.637836
0	C	0.0446838	0.881076	0.35718
0	C	0.0960365	0.541671	0.820318
0	C	0.902	0.460498	0.174725
0	C	0.0938987	0.469788	0.763767
0	C	0.904125	0.532377	0.231277
0	H	0.0268177	0.425206	0.713098
0	H	0.97121	0.576968	0.281946
0	C	0.174636	0.451771	0.770803
0	C	0.82338	0.550372	0.224243
0	H	0.169862	0.395419	0.725632
0	H	0.828131	0.606713	0.269415
0	C	0.262198	0.504709	0.837534
0	C	0.735835	0.49744	0.157503
0	C	0.346342	0.482831	0.851729
0	C	0.651687	0.519313	0.143313
0	H	0.339733	0.424921	0.807304
0	H	0.658281	0.577208	0.18775
0	C	0.429837	0.532018	0.918335
0	C	0.568208	0.470146	0.0766943
0	H	0.493104	0.5151	0.930217
0	H	0.504937	0.487056	0.0648198
0	C	0.438423	0.609273	0.976823
0	C	0.559621	0.392899	0.0181996
0	C	0.523867	0.658778	0.048103
0	C	0.474188	0.34341	0.946916
0	H	0.585361	0.639267	0.0597812
0	H	0.412695	0.362921	0.935241
0	C	0.529861	0.731739	0.104479
0	C	0.468175	0.270436	0.890546
0	H	0.595904	0.768408	0.160801
0	H	0.402136	0.23378	0.834224
0	C	0.451758	0.757781	0.0899581
0	C	0.546262	0.244366	0.905079
0	H	0.457097	0.814569	0.134751
0	H	0.540895	0.187559	0.860294
0	C	0.365881	0.709876	0.0189874
0	C	0.632156	0.29228	0.976044
0	C	0.283045	0.73455	0.000816042
0	C	0.714989	0.2676	0.994228
0	H	0.291262	0.795968	0.0409538
0	H	0.706758	0.206169	0.954104
0	C	0.198536	0.683701	0.936422
0	C	0.79951	0.318466	0.0586135
0	H	0.139262	0.706528	0.923203
0	H	0.858774	0.295626	0.0718385
0	C	0.184273	0.60086	0.88219
0	C	0.813772	0.40131	0.112848
0	C	0.267282	0.579946	0.893008
0	C	0.730748	0.422205	0.102028
0	C	0.357672	0.633706	0.962336
0	C	0.640365	0.368451	0.0326966
0	C	0.029883	0.75733	0.770217
0	C	0.96813	0.244841	0.224825
0	C	0.0601727	0.72232	0.712493
0	C	0.93781	0.279849	0.282523
0	H	0.0226411	0.656834	0.669647
0	H	0.975327	0.345344	0.325361
0	C	0.138353	0.768133	0.707574
0	C	0.859638	0.234029	0.287442
0	H	0.160375	0.737635	0.662977
0	H	0.837581	0.264523	0.332013
0	C	0.190006	0.852371	0.760965
0	C	0.808019	0.14979	0.234071
0	C	0.273179	0.901084	0.758499
0	C	0.724857	0.101071	0.236545
0	H	0.29376	0.869955	0.712976
0	H	0.704252	0.132199	0.282049
0	C	0.325043	0.981397	0.812105
0	C	0.673008	0.0207574	0.182953
0	H	0.388817	0.0172413	0.811693
0	H	0.609244	0.984917	0.183373
0	C	0.298372	0.0222561	0.873393
0	C	0.699652	0.979898	0.121643
0	C	0.352073	0.105094	0.93018
0	C	0.645966	0.897064	0.0648749
0	H	0.415238	0.140579	0.928673
0	H	0.582814	0.861578	0.0663944
0	C	0.325866	0.142583	0.989454
0	C	0.672138	0.859578	0.00556754
0	H	0.369232	0.206535	0.0341425
0	H	0.628763	0.795633	0.960881
0	C	0.245498	0.0983415	0.992745
0	C	0.752502	0.903822	0.00226895
0	H	0.225817	0.127428	0.0396903
0	H	0.772148	0.874738	0.955297
0	C	0.190234	0.015651	0.936451
0	C	0.807792	0.986514	0.0585819
0	C	0.10615	0.967963	0.937801
0	C	0.891883	0.034203	0.0572396
0	H	0.0856072	0.999435	0.983096
0	H	0.912403	0.00273279	0.0119271
0	C	0.054798	0.887314	0.884779
0	C	0.943246	0.114851	0.110281
0	H	0.991661	0.854719	0.887533
0	H	0.00639274	0.147443	0.107535
0	C	0.0798755	0.842782	0.823854
0	C	0.918142	0.159385	0.171183
0	C	0.161004	0.88989	0.819716
0	C	0.837005	0.112274	0.175303
0	C	0.21638	0.976202	0.876274
0	C	0.781634	0.0259641	0.11875
0	C	0.78172	0.671887	0.544996
0	C	0.21632	0.330286	0.450051
0	C	0.854256	0.658323	0.526158
0	C	0.143792	0.343868	0.468898
0	H	0.896048	0.623268	0.556693
0	H	0.101991	0.378911	0.438356
0	C	0.876505	0.688372	0.469481
0	C	0.121528	0.313805	0.525559
0	H	0.93349	0.676313	0.45708
0	H	0.0645348	0.325859	0.537952
0	C	0.826332	0.734695	0.428959
0	C	0.171679	0.267456	0.566069
0	C	0.845794	0.764305	0.367327
0	C	0.152213	0.237843	0.627693
0	H	0.900203	0.748268	0.352868
0	H	0.0977928	0.253871	0.642142
0	C	0.798987	0.81076	0.329521
0	C	0.199008	0.191374	0.665494
0	H	0.813648	0.832892	0.283113
0	H	0.184316	0.169214	0.711875
0	C	0.728454	0.833852	0.350527
0	C	0.26955	0.168294	0.644498
0	C	0.681776	0.884622	0.314082
0	C	0.31624	0.117529	0.680955
0	H	0.698051	0.906951	0.268609
0	H	0.299943	0.0951813	0.726408
0	C	0.61551	0.907407	0.3364
0	C	0.38251	0.0947549	0.658644
0	H	0.580078	0.947246	0.308134
0	H	0.417927	0.0549005	0.686898
0	C	0.594714	0.879983	0.395175
0	C	0.403299	0.12217	0.599855
0	H	0.542988	0.898076	0.412314
0	H	0.455015	0.104067	0.58271
0	C	0.640311	0.829067	0.432513
0	C	0.357687	0.173066	0.562506
0	C	0.620574	0.799059	0.493632
0	C	0.37742	0.203068	0.501377
0	H	0.569098	0.818346	0.510578
0	H	0.428883	0.18377	0.484421
0	C	0.663382	0.748389	0.527893
0	C	0.334596	0.253721	0.467108
0	H	0.64522	0.726577	0.572566
0	H	0.35272	0.275498	0.422399
0	C	0.733619	0.722627	0.508339
0	C	0.264374	0.279504	0.486675
0	C	0.755749	0.753395	0.449576
0	C	0.242232	0.248726	0.545426
0	C	0.707866	0.805214	0.410525
0	C	0.290107	0.196897	0.584473
