#******************************************
#
# CIF file created by Zeo++
# Zeo++ is an open source package to
# analyze microporous materials
#
#*******************************************

_cell_length_a		20.9392(0)
_cell_length_b		9.09877(0)
_cell_length_c		16.5332(0)
_cell_angle_alpha		90(0)
_cell_angle_beta		102.785(0)
_cell_angle_gamma		90(0)

_symmetry_space_group_name_H-M		'P1'
_symmetry_Int_Tables_number		1
_symmetry_cell_setting		Monoclinic

loop_
_symmetry_equiv_pos_as_xyz
'+x,+y,+z'

loop_
_atom_site_label
_atom_site_type_symbol
_atom_site_fract_x
_atom_site_fract_y
_atom_site_fract_z
0	Cl	0.795962	0.998011	0.688418
0	Cl	0.206766	0.997961	0.306366
0	Cl	0.293809	0.497288	0.688476
0	Cl	0.711371	0.507666	0.30584
0	O	0.808214	0.950174	0.991617
0	O	0.19444	0.950146	0.00310604
0	O	0.30715	0.448284	0.991653
0	O	0.695585	0.448652	0.00283024
0	C	0.86063	0.891912	0.052979
0	C	0.142088	0.891877	0.941652
0	C	0.359471	0.390225	0.0532292
0	C	0.643129	0.390642	0.941433
0	H	0.890646	0.985444	0.0816917
0	H	0.112133	0.985417	0.912842
0	H	0.389317	0.483934	0.0820078
0	H	0.613375	0.484415	0.912545
0	O	0.833468	0.81611	0.114986
0	O	0.16935	0.815895	0.879799
0	O	0.332163	0.31436	0.115076
0	O	0.670336	0.314358	0.879637
0	C	0.893064	0.76992	0.00919072
0	C	0.109529	0.770114	0.985474
0	C	0.39218	0.268488	0.00956535
0	C	0.610153	0.269549	0.985214
0	H	0.93162	0.823851	0.980073
0	H	0.0710317	0.824275	0.014591
0	H	0.430573	0.322782	0.98031
0	H	0.571506	0.324169	0.0138822
0	C	0.835829	0.714859	0.940738
0	C	0.166742	0.714866	0.0539214
0	C	0.33497	0.212881	0.941177
0	C	0.667006	0.214729	0.0543179
0	H	0.80959	0.620432	0.961152
0	H	0.19295	0.620449	0.0334358
0	H	0.308809	0.118537	0.961808
0	H	0.693055	0.119386	0.0344626
0	H	0.852884	0.674221	0.886058
0	H	0.149656	0.674154	0.108561
0	H	0.352037	0.172036	0.886559
0	H	0.649609	0.175396	0.108983
0	C	0.790889	0.85072	0.920344
0	C	0.211719	0.85065	0.0743817
0	C	0.289859	0.348441	0.920527
0	C	0.712549	0.349736	0.0743826
0	C	0.718817	0.811341	0.910069
0	C	0.28379	0.811263	0.0846331
0	C	0.217794	0.308996	0.910492
0	C	0.784279	0.307122	0.0845762
0	H	0.706698	0.748553	0.961396
0	H	0.295897	0.7485	0.0332881
0	H	0.205875	0.245641	0.961761
0	H	0.795746	0.242968	0.0332975
0	O	0.67145	0.926666	0.876599
0	O	0.331128	0.926686	0.118074
0	O	0.170371	0.424655	0.877722
0	O	0.832989	0.419814	0.117791
0	C	0.677199	0.80115	0.823326
0	C	0.32544	0.801147	0.171359
0	C	0.175748	0.299638	0.823959
0	C	0.825704	0.295449	0.171354
0	H	0.634052	0.729226	0.809893
0	H	0.368603	0.729279	0.184784
0	H	0.13254	0.227896	0.810622
0	H	0.867965	0.221006	0.185082
0	C	0.707999	0.83036	0.749137
0	C	0.294682	0.830348	0.245576
0	C	0.206126	0.329454	0.749515
0	C	0.795865	0.330769	0.245546
0	H	0.715276	0.723012	0.71903
0	H	0.287462	0.723029	0.275749
0	H	0.213164	0.222349	0.718984
0	H	0.784144	0.227262	0.276855
0	O	0.662879	0.920123	0.68874
0	O	0.33984	0.920265	0.305864
0	O	0.160695	0.419733	0.689749
0	O	0.843909	0.419528	0.303211
0	C	0.770181	0.918455	0.770653
0	C	0.232463	0.918372	0.224082
0	C	0.268479	0.417042	0.770871
0	C	0.735015	0.423403	0.223445
0	C	0.806556	0.932103	0.847477
0	C	0.196062	0.931979	0.147279
0	C	0.305338	0.429711	0.847489
0	C	0.697813	0.433996	0.14693
0	H	0.851425	0.997636	0.862276
0	H	0.151168	0.99741	0.132515
0	H	0.350364	0.494747	0.862
0	H	0.65311	0.500019	0.132067
0	N	0.924857	0.652537	0.0645823
0	N	0.0776362	0.652742	0.930165
0	N	0.424353	0.15153	0.0650366
0	N	0.578237	0.152081	0.929881
0	H	0.895014	0.571271	0.0788908
0	H	0.107448	0.571329	0.915928
0	H	0.394598	0.0706012	0.0799254
0	H	0.608126	0.0713068	0.915139
0	C	0.986645	0.680544	0.115023
0	C	0.0158271	0.680706	0.879764
0	C	0.486531	0.179333	0.11458
0	C	0.516052	0.179421	0.880183
0	O	0.0143456	0.798317	0.109949
0	O	0.988146	0.798462	0.884764
0	O	0.51434	0.296652	0.108757
0	O	0.488116	0.296571	0.885952
0	C	0.0165487	0.557716	0.169377
0	C	0.985908	0.55777	0.825475
0	C	0.516816	0.0569453	0.169161
0	C	0.485873	0.0569703	0.825564
0	H	0.994041	0.449853	0.156469
0	H	0.0083357	0.449889	0.838487
0	H	0.494237	0.949068	0.156828
0	H	0.50857	0.94919	0.837785
0	C	0.0703905	0.582424	0.228851
0	C	0.932105	0.582449	0.765929
0	C	0.570952	0.0820832	0.228138
0	C	0.431639	0.0819256	0.766692
0	H	0.0902187	0.695068	0.23794
0	H	0.912289	0.695094	0.756764
0	H	0.590843	0.194708	0.236663
0	H	0.411622	0.194471	0.758293
0	C	0.107011	0.469986	0.284607
0	C	0.895512	0.46996	0.71015
0	C	0.607864	0.97028	0.284153
0	C	0.394737	0.970146	0.710634
0	C	0.156646	0.514103	0.346289
0	C	0.845895	0.514124	0.648438
0	C	0.657499	0.014751	0.345752
0	C	0.345111	0.014624	0.649021
0	H	0.168435	0.631048	0.354858
0	H	0.834106	0.631066	0.639895
0	H	0.66926	0.131698	0.35418
0	H	0.333306	0.131574	0.640643
0	C	0.19914	0.414727	0.408886
0	C	0.803439	0.414775	0.585799
0	C	0.700033	0.915698	0.40854
0	C	0.30259	0.915596	0.586201
0	H	0.207946	0.309176	0.378037
0	H	0.794619	0.309206	0.616629
0	H	0.708867	0.810014	0.377845
0	H	0.293778	0.809838	0.616851
0	C	0.265714	0.489727	0.443338
0	C	0.736861	0.489719	0.551287
0	C	0.766616	0.990664	0.442972
0	C	0.235993	0.990518	0.551792
0	H	0.283651	0.541528	0.39185
0	H	0.718857	0.541408	0.60276
0	H	0.784618	0.0423563	0.391507
0	H	0.217987	0.0421522	0.603264
0	H	0.259076	0.580797	0.485298
0	H	0.74352	0.580884	0.509398
0	H	0.760004	0.0817024	0.484969
0	H	0.242597	0.0816303	0.509833
0	C	0.317934	0.383246	0.489759
0	C	0.684684	0.383302	0.504726
0	C	0.818804	0.88415	0.489441
0	C	0.183822	0.884043	0.505258
0	H	0.327484	0.29574	0.447525
0	H	0.675167	0.295549	0.546851
0	H	0.828402	0.79663	0.447243
0	H	0.174243	0.796397	0.547385
0	H	0.299819	0.326773	0.539684
0	H	0.702802	0.327171	0.454705
0	H	0.800685	0.827696	0.539373
0	H	0.201943	0.827729	0.455283
0	C	0.381419	0.466508	0.526847
0	C	0.621171	0.466524	0.467736
0	C	0.882255	0.967466	0.526534
0	C	0.120358	0.967313	0.468206
0	H	0.399345	0.523549	0.476805
0	H	0.603295	0.523611	0.517791
0	H	0.900287	0.0242613	0.476478
0	H	0.102309	0.0240606	0.518257
0	H	0.371026	0.554317	0.568578
0	H	0.631543	0.554242	0.425927
0	H	0.871852	0.0554875	0.56814
0	H	0.130745	0.0553703	0.426607
0	C	0.435173	0.364885	0.574645
0	C	0.567363	0.364932	0.420032
0	C	0.935916	0.865906	0.574548
0	C	0.0667008	0.865768	0.420175
0	H	0.451362	0.288422	0.531199
0	H	0.55117	0.288569	0.463526
0	H	0.952414	0.78977	0.531187
0	H	0.0502029	0.789566	0.463501
0	H	0.415637	0.295346	0.618514
0	H	0.586837	0.295267	0.376168
0	H	0.916238	0.796039	0.618155
0	H	0.0863672	0.795972	0.376532
0	C	0.493619	0.454641	0.622213
0	C	0.508918	0.454569	0.372466
0	C	0.994093	0.955774	0.622589
0	C	0.00850928	0.95562	0.372165
0	H	0.511641	0.529954	0.57938
0	H	0.490891	0.530042	0.415304
0	H	0.0123569	0.0311869	0.580014
0	H	0.990229	0.0310164	0.414751
0	H	0.477656	0.526715	0.668042
0	H	0.524868	0.526722	0.326595
0	H	0.977873	0.0278178	0.668215
0	H	0.0247105	0.0276666	0.326517
0	C	0.549981	0.357536	0.666685
0	C	0.452548	0.357563	0.328033
0	C	0.0501878	0.858498	0.667492
0	C	0.952401	0.858364	0.327272
0	H	0.534952	0.284136	0.711614
0	H	0.467547	0.284166	0.28308
0	H	0.0348268	0.785461	0.712346
0	H	0.967697	0.785458	0.282319
0	H	0.590155	0.426111	0.700943
0	H	0.412357	0.426104	0.293797
0	H	0.0903037	0.927025	0.701874
0	H	0.91226	0.926982	0.293017
0	H	0.569862	0.290891	0.622922
0	H	0.432679	0.290913	0.371807
0	H	0.0701306	0.791413	0.623967
0	H	0.932493	0.791107	0.370752
0	C	0.0868347	0.31333	0.268149
0	C	0.915715	0.31336	0.726573
0	C	0.587863	0.813446	0.268034
0	C	0.4147	0.813275	0.72672
0	H	0.119038	0.235652	0.308962
0	H	0.883542	0.235699	0.685713
0	H	0.62015	0.736156	0.309021
0	H	0.382341	0.735999	0.685795
0	H	0.087274	0.281536	0.204065
0	H	0.915252	0.281436	0.790627
0	H	0.588338	0.781309	0.204018
0	H	0.414279	0.781159	0.790752
0	H	0.03694	0.294217	0.276891
0	H	0.965614	0.294296	0.717825
0	H	0.538002	0.794232	0.276868
0	H	0.464531	0.794001	0.717801
0	C	0.163253	0.379902	0.478166
0	C	0.839347	0.379952	0.516536
0	C	0.664228	0.881206	0.477945
0	C	0.338365	0.881188	0.516754
0	H	0.153187	0.480135	0.509952
0	H	0.849446	0.480162	0.484765
0	H	0.654252	0.981585	0.50968
0	H	0.348364	0.981601	0.485071
0	H	0.192709	0.308093	0.525334
0	H	0.809916	0.308087	0.469395
0	H	0.693741	0.809568	0.525172
0	H	0.308819	0.809671	0.469493
0	H	0.11657	0.324373	0.453539
0	H	0.886027	0.324398	0.541195
0	H	0.617523	0.825672	0.453499
0	H	0.385049	0.825538	0.541165
0	C	0.800883	0.889908	0.166207
0	C	0.201636	0.88952	0.828169
0	C	0.29972	0.38805	0.166527
0	C	0.702796	0.387974	0.828157
0	O	0.790158	0.0207554	0.159826
0	O	0.211964	0.0205772	0.833959
0	O	0.28936	0.519081	0.16067
0	O	0.713186	0.518999	0.834033
0	C	0.783913	0.785394	0.227118
0	C	0.218683	0.784478	0.76753
0	C	0.282612	0.282986	0.227129
0	C	0.719868	0.282944	0.767531
0	H	0.799734	0.828169	0.290855
0	H	0.202938	0.826938	0.703724
0	H	0.298379	0.325304	0.290944
0	H	0.704113	0.325359	0.703713
0	H	0.806631	0.675809	0.225247
0	H	0.195996	0.674905	0.769609
0	H	0.305228	0.173322	0.224988
0	H	0.69723	0.173319	0.769626
0	H	0.730571	0.767887	0.215759
0	H	0.272004	0.766559	0.778917
0	H	0.229277	0.265229	0.215732
0	H	0.773199	0.265129	0.778924
0	C	0.603379	0.855585	0.65165
0	C	0.399284	0.855645	0.343081
0	C	0.101567	0.354744	0.651799
0	C	0.901779	0.351698	0.342505
0	O	0.59575	0.724119	0.654442
0	O	0.406881	0.724163	0.340327
0	O	0.094149	0.223157	0.654123
0	O	0.90785	0.219655	0.341568
0	C	0.555075	0.968649	0.612924
0	C	0.447578	0.968708	0.381858
0	C	0.0533679	0.467785	0.612775
0	C	0.950568	0.463973	0.381282
0	H	0.510139	0.917156	0.576543
0	H	0.49249	0.91721	0.418302
0	H	0.00886212	0.416232	0.575396
0	H	0.994965	0.411746	0.418429
0	H	0.574392	0.0447586	0.572429
0	H	0.42821	0.044818	0.422308
0	H	0.073123	0.544815	0.573148
0	H	0.931141	0.541232	0.421128
0	H	0.540028	0.037488	0.660795
0	H	0.462654	0.03754	0.334009
0	H	0.0375888	0.535761	0.66048
0	H	0.966284	0.531986	0.333562
