#******************************************
#
# CIF file created by Zeo++
# Zeo++ is an open source package to
# analyze microporous materials
#
#*******************************************

_cell_length_a		10.6561(0)
_cell_length_b		10.2444(0)
_cell_length_c		28.4902(0)
_cell_angle_alpha		90(0)
_cell_angle_beta		90(0)
_cell_angle_gamma		90(0)

_symmetry_space_group_name_H-M		'P1'
_symmetry_Int_Tables_number		1
_symmetry_cell_setting		Monoclinic

loop_
_symmetry_equiv_pos_as_xyz
'+x,+y,+z'

loop_
_atom_site_label
_atom_site_type_symbol
_atom_site_fract_x
_atom_site_fract_y
_atom_site_fract_z
0	O	0.921477	0.771973	0.168094
0	O	0.0861001	0.252825	0.668014
0	O	0.420072	0.761056	0.168365
0	O	0.587574	0.264319	0.668304
0	N	0.916726	0.547808	0.898002
0	N	0.0908697	0.477541	0.398054
0	N	0.418038	0.975985	0.898058
0	N	0.589688	0.0490876	0.398068
0	N	0.965742	0.983349	0.154393
0	N	0.0418348	0.0414896	0.654335
0	N	0.465637	0.550158	0.154218
0	N	0.542016	0.475189	0.654183
0	N	0.869957	0.97937	0.185736
0	N	0.137606	0.0454676	0.685693
0	N	0.369426	0.552977	0.185367
0	N	0.6382	0.472337	0.685351
0	N	0.486543	0.624427	0.317746
0	N	0.521039	0.400535	0.81765
0	N	0.984412	0.901719	0.318629
0	N	0.023023	0.123068	0.818571
0	C	0.0268538	0.495984	0.919502
0	C	0.980798	0.529279	0.41964
0	C	0.527924	0.0287049	0.919477
0	C	0.479834	0.996356	0.41952
0	C	0.04162	0.436722	0.963426
0	C	0.966025	0.588457	0.463583
0	C	0.542903	0.0881102	0.963388
0	C	0.464901	0.936925	0.463428
0	H	0.962807	0.425479	0.987286
0	H	0.0448029	0.599757	0.487458
0	H	0.464312	0.0990726	0.987365
0	H	0.543517	0.925872	0.487381
0	C	0.161688	0.394502	0.975543
0	C	0.845943	0.630498	0.475784
0	C	0.662856	0.130724	0.975517
0	C	0.344938	0.894414	0.475598
0	H	0.176816	0.34881	0.00965325
0	H	0.830885	0.676031	0.509934
0	H	0.677923	0.176544	0.00962908
0	H	0.329984	0.848617	0.509718
0	C	0.264279	0.409996	0.944954
0	C	0.743275	0.614929	0.445243
0	C	0.765335	0.115317	0.944879
0	C	0.242333	0.909838	0.445026
0	H	0.356932	0.377195	0.95601
0	H	0.650585	0.647502	0.456348
0	H	0.858044	0.148112	0.955889
0	H	0.149622	0.877133	0.456077
0	C	0.249879	0.468304	0.901026
0	C	0.757657	0.556717	0.401299
0	C	0.750781	0.0568935	0.900974
0	C	0.256855	0.968197	0.401105
0	H	0.329774	0.47895	0.877296
0	H	0.677737	0.546019	0.377587
0	H	0.830541	0.0463857	0.877184
0	H	0.17699	0.978713	0.377361
0	C	0.131047	0.512529	0.887967
0	C	0.876494	0.512627	0.388164
0	C	0.632062	0.0122243	0.887924
0	C	0.375574	0.0128021	0.388016
0	C	0.0836121	0.578289	0.846439
0	C	0.923732	0.446835	0.346601
0	C	0.584806	0.945747	0.846489
0	C	0.42279	0.0792662	0.34657
0	C	0.139343	0.615827	0.804233
0	C	0.867865	0.409145	0.304434
0	C	0.640363	0.908224	0.804238
0	C	0.367124	0.116752	0.304343
0	H	0.238697	0.596807	0.798158
0	H	0.768467	0.428068	0.298419
0	H	0.739655	0.927497	0.798122
0	H	0.267815	0.0974924	0.298274
0	C	0.0652297	0.675672	0.770101
0	C	0.941779	0.349223	0.270253
0	C	0.566435	0.848295	0.77006
0	C	0.440917	0.176652	0.270114
0	H	0.106798	0.705172	0.73674
0	H	0.900122	0.319611	0.236918
0	H	0.608002	0.819361	0.736633
0	H	0.399167	0.205551	0.236718
0	C	0.936588	0.698319	0.777736
0	C	0.0704562	0.326654	0.277833
0	C	0.43792	0.825128	0.777763
0	C	0.569447	0.199878	0.27775
0	H	0.881338	0.743873	0.749892
0	H	0.125567	0.281025	0.249966
0	H	0.382714	0.779414	0.74993
0	H	0.624496	0.245627	0.24988
0	C	0.878244	0.663268	0.819711
0	C	0.128902	0.361854	0.319764
0	C	0.37975	0.859871	0.819812
0	C	0.627687	0.165178	0.319787
0	H	0.778778	0.681489	0.825504
0	H	0.228321	0.343694	0.3255
0	H	0.280458	0.841109	0.825662
0	H	0.726945	0.183968	0.325597
0	C	0.952174	0.602337	0.853891
0	C	0.0552064	0.422836	0.353982
0	C	0.453476	0.921232	0.853975
0	C	0.55415	0.103821	0.35399
0	C	0.800132	0.57001	0.922042
0	C	0.207474	0.45518	0.422064
0	C	0.300999	0.955296	0.921905
0	C	0.706794	0.0697845	0.421886
0	C	0.737048	0.4634	0.942234
0	C	0.270701	0.561743	0.442242
0	C	0.23928	0.0627977	0.942102
0	C	0.768507	0.962261	0.44207
0	H	0.774525	0.364774	0.93841
0	H	0.23326	0.66041	0.438434
0	H	0.27821	0.160869	0.938368
0	H	0.729609	0.864191	0.438353
0	C	0.625917	0.484033	0.967006
0	C	0.381846	0.540938	0.466988
0	C	0.127748	0.04373	0.96675
0	C	0.880064	0.981366	0.466703
0	H	0.576773	0.401622	0.982802
0	H	0.431104	0.623314	0.482813
0	H	0.079627	0.126835	0.982541
0	H	0.928193	0.898315	0.482518
0	C	0.577627	0.61111	0.97192
0	C	0.429953	0.413867	0.471856
0	C	0.0776773	0.917379	0.971587
0	C	0.93014	0.107728	0.4715
0	C	0.640384	0.716883	0.95061
0	C	0.367104	0.308102	0.450585
0	C	0.138885	0.810773	0.950181
0	C	0.868984	0.214327	0.450086
0	H	0.603078	0.815656	0.954532
0	H	0.404315	0.209287	0.454501
0	H	0.10007	0.712583	0.953922
0	H	0.907854	0.312492	0.453794
0	C	0.750893	0.696939	0.92559
0	C	0.256532	0.328173	0.425621
0	C	0.249857	0.829164	0.925272
0	C	0.757947	0.19592	0.425228
0	H	0.799593	0.779805	0.90978
0	H	0.20767	0.245345	0.409856
0	H	0.297489	0.745602	0.909471
0	H	0.710289	0.279467	0.409429
0	C	0.470007	0.637411	0.999471
0	C	0.537516	0.387562	0.499412
0	C	0.969928	0.892854	0.999299
0	C	0.0378173	0.132182	0.499236
0	C	0.382335	0.667463	0.0242577
0	C	0.625162	0.357553	0.524208
0	C	0.88234	0.864648	0.0244155
0	C	0.125362	0.160402	0.524365
0	C	0.283779	0.71172	0.0536302
0	C	0.723638	0.313297	0.553596
0	C	0.783802	0.821462	0.0540255
0	C	0.223789	0.203633	0.554005
0	C	0.201064	0.624857	0.0760753
0	C	0.806344	0.400124	0.576055
0	C	0.701687	0.908762	0.0765671
0	C	0.30595	0.116394	0.576539
0	H	0.211582	0.519935	0.0709527
0	H	0.795799	0.505075	0.57096
0	H	0.712869	0.013614	0.0715141
0	H	0.294833	0.0115262	0.571502
0	C	0.106916	0.672975	0.105403
0	C	0.900519	0.351949	0.605355
0	C	0.607245	0.861187	0.105899
0	C	0.400396	0.164084	0.605853
0	H	0.0428039	0.60599	0.123181
0	H	0.964606	0.418977	0.623129
0	H	0.543466	0.928444	0.123707
0	H	0.464206	0.0968186	0.623641
0	C	0.0950611	0.808107	0.112587
0	C	0.912457	0.216799	0.61251
0	C	0.594658	0.726134	0.113
0	C	0.41295	0.29915	0.612946
0	C	0.177665	0.895361	0.090134
0	C	0.829781	0.129642	0.590044
0	C	0.67686	0.638401	0.0905817
0	C	0.330593	0.386772	0.59054
0	H	0.167696	0.000366365	0.0958227
0	H	0.839751	0.0246352	0.595697
0	H	0.666395	0.53343	0.0962818
0	H	0.340983	0.491749	0.59623
0	C	0.271277	0.847407	0.0608028
0	C	0.736085	0.177611	0.560749
0	C	0.770667	0.685837	0.0612547
0	C	0.236754	0.339268	0.561248
0	H	0.335444	0.914387	0.0432378
0	H	0.671822	0.110685	0.543209
0	H	0.834459	0.618407	0.0437211
0	H	0.172786	0.406597	0.543752
0	C	0.998719	0.860724	0.1433
0	C	0.00882684	0.164072	0.643219
0	C	0.498063	0.673222	0.143506
0	C	0.509563	0.352145	0.643447
0	C	0.841307	0.85346	0.194567
0	C	0.16626	0.171384	0.694508
0	C	0.339969	0.678548	0.194471
0	C	0.667654	0.346794	0.694437
0	C	0.748854	0.793419	0.22445
0	C	0.258686	0.231473	0.724388
0	C	0.246846	0.737166	0.224435
0	C	0.760722	0.288036	0.724399
0	C	0.727749	0.657651	0.224002
0	C	0.279824	0.367254	0.723896
0	C	0.224097	0.872631	0.224201
0	C	0.783383	0.152541	0.724107
0	H	0.782617	0.59608	0.200283
0	H	0.225	0.428784	0.700156
0	H	0.277797	0.935111	0.200421
0	H	0.729638	0.0902121	0.700298
0	C	0.637507	0.602079	0.252808
0	C	0.370065	0.422852	0.752706
0	C	0.133653	0.926743	0.253267
0	C	0.87375	0.0982761	0.75317
0	H	0.619536	0.497703	0.250193
0	H	0.388104	0.52726	0.750072
0	H	0.114297	0.0308597	0.250773
0	H	0.893002	0.994143	0.750644
0	C	0.566253	0.680761	0.284174
0	C	0.441286	0.344188	0.784098
0	C	0.0638176	0.846893	0.284676
0	C	0.943634	0.177972	0.784629
0	C	0.587067	0.817943	0.283907
0	C	0.420455	0.207009	0.783861
0	C	0.0858432	0.70991	0.284063
0	C	0.92171	0.314974	0.784064
0	H	0.532093	0.88167	0.306606
0	H	0.475435	0.143303	0.806566
0	H	0.0317978	0.645303	0.306753
0	H	0.9758	0.379479	0.806781
0	C	0.675878	0.872645	0.254469
0	C	0.331614	0.152303	0.754439
0	C	0.17485	0.65666	0.254374
0	C	0.832735	0.368377	0.754396
0	H	0.689839	0.978538	0.254255
0	H	0.317591	0.0464209	0.754253
0	H	0.189798	0.550935	0.253926
0	H	0.817814	0.474104	0.754001
0	C	0.445876	0.487169	0.310702
0	C	0.561876	0.537714	0.81059
0	C	0.944576	0.0396072	0.312684
0	C	0.062751	0.985165	0.812601
0	H	0.383198	0.456505	0.339531
0	H	0.62475	0.568342	0.839375
0	H	0.88168	0.0687702	0.341641
0	H	0.125694	0.955986	0.841546
0	H	0.528431	0.422069	0.311904
0	H	0.479415	0.602921	0.81179
0	H	0.0274565	0.10414	0.314533
0	H	0.979859	0.920699	0.814529
0	H	0.396576	0.47139	0.277031
0	H	0.611143	0.553424	0.776874
0	H	0.895753	0.057877	0.279069
0	H	0.111395	0.966865	0.778982
0	C	0.388876	0.708409	0.339618
0	C	0.618487	0.316459	0.839617
0	C	0.886796	0.816947	0.340125
0	C	0.12065	0.207726	0.840122
0	H	0.313129	0.649433	0.355296
0	H	0.694047	0.37538	0.855448
0	H	0.80985	0.875128	0.355352
0	H	0.197199	0.149356	0.855538
0	H	0.343896	0.776121	0.314528
0	H	0.663689	0.248831	0.814555
0	H	0.843372	0.748544	0.314892
0	H	0.164577	0.275757	0.81488
0	H	0.432166	0.766155	0.368083
0	H	0.574936	0.258522	0.867998
0	H	0.929754	0.759645	0.36887
0	H	0.0775697	0.265414	0.868722
