#******************************************
#
# CIF file created by Zeo++
# Zeo++ is an open source package to
# analyze microporous materials
#
#*******************************************

_cell_length_a		17.5089(0)
_cell_length_b		17.5(0)
_cell_length_c		28.6651(0)
_cell_angle_alpha		90(0)
_cell_angle_beta		90(0)
_cell_angle_gamma		120.086(0)

_symmetry_space_group_name_H-M		'P1'
_symmetry_Int_Tables_number		1
_symmetry_cell_setting		Monoclinic

loop_
_symmetry_equiv_pos_as_xyz
'+x,+y,+z'

loop_
_atom_site_label
_atom_site_type_symbol
_atom_site_fract_x
_atom_site_fract_y
_atom_site_fract_z
0	C	0.380752	0.195676	0.923423
0	C	0.805943	0.186169	0.923234
0	C	0.815852	0.620187	0.923171
0	C	0.195843	0.380461	0.588917
0	C	0.186357	0.80633	0.588833
0	C	0.620632	0.815416	0.588876
0	C	0.621209	0.805872	0.0859194
0	C	0.195757	0.81521	0.0859651
0	C	0.185919	0.381238	0.085946
0	C	0.805964	0.620997	0.420397
0	C	0.815431	0.195101	0.420409
0	C	0.381185	0.18602	0.420369
0	C	0.0471688	0.528793	0.252285
0	C	0.473011	0.519634	0.252271
0	C	0.482365	0.953548	0.252262
0	C	0.862548	0.713662	0.923733
0	C	0.852726	0.139633	0.923765
0	C	0.28731	0.148806	0.923915
0	C	0.287735	0.139169	0.420618
0	C	0.862047	0.148368	0.420647
0	C	0.852769	0.714489	0.420651
0	C	0.472687	0.954386	0.756706
0	C	0.482192	0.528546	0.75671
0	C	0.0480502	0.519434	0.75669
0	C	0.714086	0.862298	0.588625
0	C	0.139721	0.853045	0.588601
0	C	0.149015	0.286964	0.588641
0	C	0.529127	0.0470804	0.252541
0	C	0.51959	0.472858	0.252534
0	C	0.953753	0.481997	0.252555
0	C	0.954638	0.47266	0.756959
0	C	0.52878	0.481778	0.756979
0	C	0.519429	0.0479154	0.756983
0	C	0.139238	0.287766	0.0854253
0	C	0.148974	0.861745	0.0854413
0	C	0.714645	0.852695	0.0854016
0	C	0.42554	0.288104	0.922425
0	C	0.713569	0.138479	0.922217
0	C	0.863362	0.575396	0.922198
0	C	0.288237	0.42534	0.589619
0	C	0.138741	0.713902	0.589554
0	C	0.575698	0.862773	0.589611
0	C	0.576358	0.713437	0.0869219
0	C	0.288141	0.86292	0.0869866
0	C	0.138386	0.426003	0.0869391
0	C	0.713566	0.576104	0.419686
0	C	0.863064	0.287533	0.419698
0	C	0.426079	0.138627	0.419649
0	C	0.0921542	0.62124	0.251554
0	C	0.380601	0.472035	0.251539
0	C	0.529899	0.908775	0.251531
0	C	0.954942	0.758633	0.924434
0	C	0.80525	0.0471777	0.924466
0	C	0.2424	0.196213	0.924566
0	C	0.242906	0.046739	0.421341
0	C	0.954442	0.195919	0.421378
0	C	0.805309	0.759335	0.421369
0	C	0.380286	0.909396	0.755992
0	C	0.529887	0.620995	0.755992
0	C	0.0927285	0.471806	0.755984
0	C	0.75889	0.954724	0.587915
0	C	0.0473233	0.80548	0.587874
0	C	0.19645	0.242092	0.587911
0	C	0.621525	0.0920611	0.253257
0	C	0.471893	0.380411	0.25326
0	C	0.909041	0.529589	0.253274
0	C	0.90963	0.380211	0.757704
0	C	0.621189	0.529384	0.757712
0	C	0.471871	0.0926633	0.757717
0	C	0.0468361	0.242785	0.0847522
0	C	0.196453	0.954202	0.0847603
0	C	0.759477	0.805211	0.0847469
0	C	0.380319	0.335349	0.922847
0	C	0.666249	0.045886	0.922695
0	C	0.955904	0.620656	0.922703
0	C	0.335532	0.380156	0.589193
0	C	0.0461743	0.666486	0.589159
0	C	0.620817	0.955399	0.589207
0	C	0.62149	0.666109	0.0864719
0	C	0.335468	0.955514	0.0865241
0	C	0.0458422	0.380731	0.0864711
0	C	0.666249	0.62126	0.420087
0	C	0.95563	0.334936	0.420092
0	C	0.380935	0.045999	0.420056
0	C	0.047091	0.668639	0.251959
0	C	0.333054	0.379418	0.251949
0	C	0.622463	0.954074	0.251939
0	C	0.00223491	0.713499	0.923835
0	C	0.712694	0.999632	0.92384
0	C	0.287522	0.288818	0.92394
0	C	0.288137	0.999481	0.420945
0	C	0.001884	0.288534	0.420975
0	C	0.712733	0.714108	0.420967
0	C	0.33289	0.954469	0.756413
0	C	0.622458	0.668428	0.756404
0	C	0.0474145	0.379188	0.756411
0	C	0.713617	0.0019466	0.588314
0	C	0.999901	0.712872	0.588275
0	C	0.289024	0.287305	0.588303
0	C	0.668899	0.0469593	0.252834
0	C	0.379323	0.332988	0.252846
0	C	0.954329	0.622207	0.252852
0	C	0.954656	0.332778	0.757301
0	C	0.668737	0.622004	0.757299
0	C	0.379309	0.0473557	0.757307
0	C	0.999521	0.28789	0.0853584
0	C	0.289017	0.00176473	0.0853908
0	C	0.71429	0.712604	0.0853669
0	C	0.431603	0.433109	0.922883
0	C	0.568559	0.999245	0.922774
0	C	0.00238291	0.569558	0.922789
0	C	0.433274	0.431446	0.589115
0	C	0.999634	0.568726	0.589084
0	C	0.569621	0.00183767	0.589136
0	C	0.570158	0.568341	0.0863937
0	C	0.433166	0.0021554	0.0864403
0	C	0.999348	0.431813	0.0863916
0	C	0.568507	0.569965	0.420143
0	C	0.00218054	0.432702	0.420144
0	C	0.432095	0.999526	0.420106
0	C	0.0984811	0.766417	0.252027
0	C	0.235318	0.332876	0.252015
0	C	0.668983	0.902965	0.251991
0	C	0.0999398	0.76484	0.92382
0	C	0.666269	0.9019	0.923808
0	C	0.236344	0.335265	0.92387
0	C	0.236902	0.90171	0.420883
0	C	0.0996136	0.335103	0.420902
0	C	0.666284	0.765301	0.42089
0	C	0.235161	0.903124	0.756485
0	C	0.66902	0.766208	0.756452
0	C	0.0984722	0.332606	0.756475
0	C	0.764831	0.0997136	0.588351
0	C	0.902172	0.666293	0.588339
0	C	0.335445	0.236082	0.588352
0	C	0.76663	0.0983041	0.252753
0	C	0.332758	0.235207	0.252775
0	C	0.903238	0.668752	0.252768
0	C	0.903244	0.234997	0.757207
0	C	0.766473	0.66855	0.757222
0	C	0.332761	0.0984356	0.757239
0	C	0.901813	0.236553	0.0853862
0	C	0.335446	0.0994993	0.0854142
0	C	0.765399	0.666091	0.0853927
0	C	0.428799	0.480144	0.961878
0	C	0.521586	0.949351	0.961777
0	C	0.0522909	0.572555	0.961777
0	C	0.480359	0.429021	0.55005
0	C	0.949999	0.521606	0.550029
0	C	0.572044	0.0513312	0.550051
0	C	0.572994	0.521356	0.0473894
0	C	0.480134	0.052028	0.0474314
0	C	0.949468	0.428822	0.0473974
0	C	0.521396	0.572389	0.459197
0	C	0.0518287	0.479868	0.45919
0	C	0.429712	0.95004	0.45919
0	C	0.0960419	0.813537	0.29109
0	C	0.188148	0.283164	0.29105
0	C	0.718666	0.905586	0.291019
0	C	0.147062	0.761875	0.884914
0	C	0.616129	0.854709	0.884901
0	C	0.239434	0.385448	0.884962
0	C	0.239387	0.854621	0.381834
0	C	0.146762	0.384769	0.381852
0	C	0.616739	0.762807	0.381824
0	C	0.188069	0.905624	0.795528
0	C	0.718695	0.813429	0.795487
0	C	0.0958731	0.282918	0.795508
0	C	0.762385	0.14685	0.627393
0	C	0.855009	0.616608	0.62738
0	C	0.385023	0.238566	0.627404
0	C	0.813702	0.0958062	0.213701
0	C	0.283101	0.188038	0.213731
0	C	0.905874	0.718448	0.213731
0	C	0.905723	0.187927	0.718138
0	C	0.813629	0.718242	0.718177
0	C	0.28311	0.0958073	0.718198
0	C	0.854682	0.239525	0.124286
0	C	0.385612	0.146734	0.124315
0	C	0.762343	0.615895	0.124291
0	C	0.477121	0.572206	0.962176
0	C	0.429578	0.905531	0.96214
0	C	0.0961003	0.524449	0.962118
0	C	0.572395	0.477175	0.549864
0	C	0.905973	0.429538	0.549834
0	C	0.524024	0.095232	0.549851
0	C	0.524673	0.429284	0.0470516
0	C	0.572151	0.0958625	0.0470721
0	C	0.905616	0.476892	0.047056
0	C	0.429367	0.524243	0.459373
0	C	0.0958318	0.571932	0.459357
0	C	0.477704	0.906117	0.459363
0	C	0.144175	0.905584	0.291255
0	C	0.0961294	0.239178	0.291228
0	C	0.762655	0.857638	0.291184
0	C	0.239082	0.810018	0.884762
0	C	0.572204	0.762645	0.884737
0	C	0.191464	0.429413	0.884773
0	C	0.191245	0.762538	0.381645
0	C	0.2388	0.428812	0.381668
0	C	0.572796	0.810808	0.381627
0	C	0.0960512	0.857506	0.795704
0	C	0.762563	0.905479	0.795663
0	C	0.143811	0.238914	0.795684
0	C	0.810543	0.238926	0.627554
0	C	0.762979	0.572587	0.627565
0	C	0.428913	0.190518	0.627584
0	C	0.905731	0.143938	0.213522
0	C	0.239213	0.0959796	0.213527
0	C	0.85791	0.762427	0.213528
0	C	0.857601	0.0958706	0.717943
0	C	0.905654	0.762244	0.718
0	C	0.239068	0.143709	0.718021
0	C	0.762666	0.191396	0.124442
0	C	0.429536	0.238792	0.12446
0	C	0.810273	0.571897	0.124439
0	C	0.528476	0.61869	0.923388
0	C	0.383075	0.910341	0.923396
0	C	0.0912881	0.473125	0.923358
0	C	0.618905	0.528161	0.58877
0	C	0.910424	0.383056	0.58873
0	C	0.47321	0.0908373	0.588781
0	C	0.473248	0.38273	0.0858041
0	C	0.618665	0.0910595	0.0858143
0	C	0.91043	0.528228	0.0858099
0	C	0.382883	0.473255	0.420464
0	C	0.0913506	0.618356	0.42044
0	C	0.528474	0.910508	0.42041
0	C	0.195092	0.951959	0.25232
0	C	0.0497585	0.243749	0.252333
0	C	0.758155	0.806695	0.252278
0	C	0.285465	0.861489	0.923559
0	C	0.577341	0.71635	0.923526
0	C	0.140029	0.424351	0.923541
0	C	0.14023	0.716051	0.420543
0	C	0.285229	0.424326	0.420572
0	C	0.577259	0.861745	0.420531
0	C	0.0496295	0.806526	0.756788
0	C	0.757877	0.951766	0.756753
0	C	0.194747	0.243432	0.756782
0	C	0.861505	0.285364	0.588627
0	C	0.716561	0.57708	0.588658
0	C	0.42443	0.139606	0.588663
0	C	0.952167	0.194909	0.252435
0	C	0.243876	0.0496403	0.252414
0	C	0.806927	0.757909	0.252406
0	C	0.806627	0.049447	0.756849
0	C	0.95204	0.757679	0.756891
0	C	0.243548	0.194672	0.756911
0	C	0.716281	0.139918	0.0856498
0	C	0.424401	0.285064	0.0856546
0	C	0.86165	0.576963	0.0856397
0	C	0.531354	0.57148	0.884426
0	C	0.430229	0.960473	0.884398
0	C	0.041187	0.470078	0.884374
0	C	0.571606	0.530677	0.627774
0	C	0.960373	0.430394	0.627728
0	C	0.470707	0.041068	0.627818
0	C	0.47028	0.429899	0.124763
0	C	0.571501	0.0408901	0.124802
0	C	0.960554	0.531313	0.124795
0	C	0.430192	0.470772	0.381459
0	C	0.0414289	0.570982	0.38145
0	C	0.530902	0.960219	0.381366
0	C	0.197702	0.904708	0.213327
0	C	0.0970927	0.29368	0.213342
0	C	0.708249	0.804049	0.213292
0	C	0.238159	0.864528	0.962405
0	C	0.627761	0.763724	0.962379
0	C	0.136881	0.373952	0.962403
0	C	0.137661	0.763361	0.459539
0	C	0.237875	0.374353	0.459563
0	C	0.627102	0.86434	0.459544
0	C	0.0968831	0.803926	0.717799
0	C	0.708002	0.904419	0.71776
0	C	0.197357	0.293325	0.717781
0	C	0.863978	0.238016	0.549628
0	C	0.763917	0.627012	0.549659
0	C	0.374605	0.137062	0.54966
0	C	0.904916	0.197536	0.291423
0	C	0.293774	0.0969471	0.291417
0	C	0.804241	0.707956	0.2914
0	C	0.803922	0.0966591	0.795839
0	C	0.904705	0.707706	0.795875
0	C	0.29347	0.197366	0.795906
0	C	0.763581	0.136899	0.0467959
0	C	0.373997	0.237663	0.0468095
0	C	0.864715	0.627314	0.0467746
0	C	0.48351	0.479329	0.884253
0	C	0.522341	0.00490336	0.884174
0	C	0.996812	0.517677	0.884181
0	C	0.479485	0.482925	0.627873
0	C	0.00485101	0.522556	0.627829
0	C	0.518298	0.996632	0.627912
0	C	0.518142	0.522053	0.124981
0	C	0.479394	0.996476	0.125031
0	C	0.00490294	0.483688	0.125
0	C	0.522323	0.518531	0.381373
0	C	0.996959	0.478816	0.381377
0	C	0.483297	0.00464822	0.381293
0	C	0.149961	0.812562	0.21326
0	C	0.189213	0.338175	0.213259
0	C	0.663727	0.851564	0.21323
0	C	0.146038	0.816799	0.962452
0	C	0.672181	0.855885	0.962435
0	C	0.184413	0.329452	0.962478
0	C	0.185426	0.855531	0.459637
0	C	0.145751	0.329839	0.459655
0	C	0.671506	0.81671	0.459652
0	C	0.189002	0.851643	0.717724
0	C	0.663634	0.812276	0.717685
0	C	0.149821	0.337825	0.717703
0	C	0.816215	0.145845	0.549562
0	C	0.856049	0.671539	0.549576
0	C	0.330181	0.184679	0.549582
0	C	0.812805	0.149823	0.291504
0	C	0.338145	0.18909	0.29152
0	C	0.851764	0.663451	0.291501
0	C	0.851671	0.188806	0.795939
0	C	0.812596	0.66323	0.795967
0	C	0.337974	0.149836	0.795993
0	C	0.855709	0.184627	0.046748
0	C	0.329559	0.145498	0.0467739
0	C	0.817184	0.671817	0.0467349
0	C	0.432496	0.148046	0.923164
0	C	0.8536	0.285681	0.923018
0	C	0.716379	0.568373	0.922926
0	C	0.148068	0.432069	0.589381
0	C	0.28583	0.854233	0.58926
0	C	0.569108	0.715896	0.589302
0	C	0.569468	0.85351	0.0861516
0	C	0.148113	0.715701	0.0861628
0	C	0.285398	0.433081	0.0861823
0	C	0.853729	0.569381	0.419918
0	C	0.715965	0.147218	0.419943
0	C	0.432727	0.28554	0.419919
0	C	0.098636	0.480897	0.251785
0	C	0.521026	0.619165	0.251807
0	C	0.382896	0.901836	0.251761
0	C	0.814709	0.765187	0.92479
0	C	0.952167	0.187635	0.924738
0	C	0.235754	0.0493002	0.924911
0	C	0.236076	0.186875	0.42107
0	C	0.814048	0.0488466	0.421058
0	C	0.952244	0.766115	0.421107
0	C	0.520554	0.902891	0.756234
0	C	0.382728	0.480691	0.756258
0	C	0.0998138	0.618976	0.756233
0	C	0.765739	0.814586	0.588144
0	C	0.187701	0.952564	0.588186
0	C	0.0495463	0.235364	0.588145
0	C	0.481245	0.0985634	0.253004
0	C	0.619061	0.520712	0.252949
0	C	0.902006	0.382453	0.252987
0	C	0.903162	0.520549	0.75743
0	C	0.480766	0.382247	0.757439
0	C	0.618904	0.0996498	0.757455
0	C	0.187067	0.236234	0.0843883
0	C	0.0495387	0.81374	0.0844362
0	C	0.766236	0.952195	0.0843668
0	C	0.519862	0.195755	0.949644
0	C	0.805905	0.325229	0.949504
0	C	0.676537	0.481062	0.949476
0	C	0.194925	0.5193	0.562706
0	C	0.326108	0.807355	0.562651
0	C	0.481924	0.675333	0.562649
0	C	0.482119	0.805788	0.0596634
0	C	0.195784	0.676162	0.0596495
0	C	0.325198	0.520379	0.0596261
0	C	0.806813	0.482073	0.446521
0	C	0.675628	0.194065	0.446528
0	C	0.519909	0.326112	0.446581
0	C	0.185922	0.527732	0.278359
0	C	0.474269	0.659601	0.278385
0	C	0.342389	0.814606	0.278417
0	C	0.86152	0.853058	0.898718
0	C	0.993026	0.140759	0.898671
0	C	0.148024	0.00822174	0.898761
0	C	0.148799	0.139845	0.394497
0	C	0.86082	0.00849046	0.394437
0	C	0.992788	0.853341	0.39445
0	C	0.473655	0.81555	0.782793
0	C	0.342506	0.527689	0.782805
0	C	0.187056	0.659357	0.782846
0	C	0.853014	0.861581	0.614728
0	C	0.140867	0.992904	0.614765
0	C	0.00892958	0.148073	0.614746
0	C	0.528084	0.185841	0.226387
0	C	0.659213	0.47368	0.226376
0	C	0.814764	0.342084	0.226381
0	C	0.815874	0.473676	0.730867
0	C	0.527466	0.341806	0.730817
0	C	0.659347	0.186825	0.730752
0	C	0.140205	0.148327	0.110425
0	C	0.00861909	0.860583	0.110481
0	C	0.853973	0.993283	0.110515
0	H	0.497591	0.32488	0.921515
0	H	0.676903	0.173789	0.921258
0	H	0.827879	0.503308	0.921255
0	H	0.324947	0.497425	0.590362
0	H	0.174059	0.677251	0.590292
0	H	0.503662	0.827202	0.590359
0	H	0.504308	0.676723	0.0878462
0	H	0.32479	0.827593	0.0879344
0	H	0.173855	0.498093	0.0878714
0	H	0.67687	0.504018	0.418947
0	H	0.827737	0.324177	0.418961
0	H	0.498119	0.174177	0.418902
0	H	0.16421	0.657908	0.250797
0	H	0.344081	0.507487	0.250784
0	H	0.494462	0.836695	0.250777
0	H	0.991592	0.830714	0.925357
0	H	0.840684	0.0106562	0.925402
0	H	0.170357	0.160639	0.925457
0	H	0.170854	0.00997793	0.422078
0	H	0.990957	0.160465	0.422121
0	H	0.840818	0.831425	0.422104
0	H	0.343666	0.83731	0.755239
0	H	0.494557	0.657642	0.755243
0	H	0.164771	0.507244	0.755235
0	H	0.830942	0.991516	0.587177
0	H	0.0107868	0.840912	0.587131
0	H	0.160926	0.170003	0.587167
0	H	0.658156	0.164146	0.254009
0	H	0.507206	0.343749	0.25401
0	H	0.837001	0.494133	0.254025
0	H	0.837576	0.34357	0.75846
0	H	0.657698	0.493921	0.758465
0	H	0.507297	0.164745	0.758472
0	H	0.0101995	0.170701	0.0838472
0	H	0.161007	0.990712	0.083832
0	H	0.831523	0.840737	0.083845
0	H	0.388483	0.444429	0.991989
0	H	0.557316	0.944801	0.991858
0	H	0.0568947	0.61283	0.991885
0	H	0.444791	0.389041	0.519822
0	H	0.945642	0.557187	0.519819
0	H	0.61188	0.0556845	0.519803
0	H	0.613324	0.557084	0.0172824
0	H	0.444413	0.056565	0.0173457
0	H	0.944877	0.388563	0.0172868
0	H	0.556962	0.612376	0.489429
0	H	0.0561952	0.444302	0.489405
0	H	0.389895	0.945703	0.489442
0	H	0.0560832	0.778035	0.321316
0	H	0.223611	0.278664	0.32127
0	H	0.723103	0.945552	0.321236
0	H	0.111529	0.721511	0.854804
0	H	0.611278	0.8902	0.854797
0	H	0.279769	0.390307	0.854844
0	H	0.279395	0.890207	0.351629
0	H	0.11126	0.389204	0.351642
0	H	0.61232	0.722863	0.351594
0	H	0.223576	0.945616	0.825752
0	H	0.723238	0.777998	0.825716
0	H	0.0559343	0.278471	0.825726
0	H	0.722385	0.111279	0.657601
0	H	0.89051	0.612154	0.657589
0	H	0.389474	0.278521	0.657636
0	H	0.778202	0.0558241	0.183479
0	H	0.278561	0.223479	0.183507
0	H	0.945833	0.722908	0.183519
0	H	0.945692	0.223442	0.687915
0	H	0.778165	0.722725	0.687957
0	H	0.278702	0.0558551	0.687982
0	H	0.890225	0.279898	0.154397
0	H	0.390459	0.111242	0.15442
0	H	0.722037	0.611055	0.154419
0	H	0.474496	0.608351	0.992557
0	H	0.393534	0.866766	0.99255
0	H	0.134879	0.527204	0.992515
0	H	0.608484	0.474582	0.519473
0	H	0.867208	0.393421	0.519453
0	H	0.526579	0.133866	0.519438
0	H	0.527335	0.393199	0.0166549
0	H	0.608179	0.134603	0.016651
0	H	0.866831	0.47411	0.0166609
0	H	0.393249	0.526848	0.489748
0	H	0.13461	0.608099	0.489728
0	H	0.475151	0.867446	0.489759
0	H	0.141641	0.941841	0.321598
0	H	0.0599152	0.200324	0.32158
0	H	0.801457	0.860383	0.321554
0	H	0.275293	0.807108	0.85452
0	H	0.533002	0.726325	0.854499
0	H	0.19447	0.468599	0.854515
0	H	0.193871	0.726427	0.351269
0	H	0.274949	0.467623	0.351285
0	H	0.534078	0.808133	0.351233
0	H	0.0598699	0.860084	0.826064
0	H	0.80137	0.94181	0.82601
0	H	0.141109	0.200121	0.826061
0	H	0.807951	0.275084	0.65792
0	H	0.726812	0.533756	0.657939
0	H	0.467632	0.193154	0.657973
0	H	0.941886	0.141372	0.183146
0	H	0.200424	0.0597023	0.183169
0	H	0.860612	0.801182	0.183132
0	H	0.86017	0.0596621	0.687589
0	H	0.941852	0.801077	0.687637
0	H	0.200267	0.140925	0.687646
0	H	0.726445	0.194328	0.154673
0	H	0.468756	0.275145	0.15469
0	H	0.807274	0.532664	0.154674
0	H	0.570733	0.606693	0.853968
0	H	0.395049	0.964614	0.853959
0	H	0.0370852	0.430732	0.853928
0	H	0.606694	0.569708	0.658352
0	H	0.964314	0.395337	0.658291
0	H	0.431811	0.0372231	0.658411
0	H	0.430809	0.394641	0.155187
0	H	0.606689	0.0367229	0.155234
0	H	0.964665	0.570685	0.155231
0	H	0.39513	0.431775	0.350871
0	H	0.0374844	0.60599	0.350866
0	H	0.569714	0.964016	0.350744
0	H	0.236757	0.939884	0.182763
0	H	0.0620208	0.297603	0.182774
0	H	0.704318	0.765103	0.182691
0	H	0.273255	0.903934	0.992884
0	H	0.632074	0.728619	0.992846
0	H	0.0975047	0.369691	0.992871
0	H	0.0985996	0.728267	0.4901
0	H	0.272939	0.37042	0.490133
0	H	0.631028	0.903326	0.49012
0	H	0.0617519	0.764878	0.687228
0	H	0.704055	0.939536	0.68721
0	H	0.236289	0.297247	0.687184
0	H	0.902953	0.273067	0.519035
0	H	0.728868	0.63092	0.519079
0	H	0.370675	0.098113	0.519068
0	H	0.940065	0.236611	0.321987
0	H	0.297725	0.0617861	0.321945
0	H	0.765223	0.703989	0.321966
0	H	0.764781	0.0614411	0.82637
0	H	0.939795	0.703757	0.82643
0	H	0.297396	0.236344	0.826493
0	H	0.728494	0.0975184	0.0163128
0	H	0.369697	0.272735	0.0163241
0	H	0.903998	0.631527	0.0162733
0	H	0.485943	0.443288	0.85378
0	H	0.558338	0.0434208	0.853693
0	H	0.958324	0.51505	0.853691
0	H	0.443449	0.485114	0.658403
0	H	0.0431839	0.558673	0.658339
0	H	0.516115	0.958428	0.658455
0	H	0.515624	0.558042	0.155458
0	H	0.443389	0.95792	0.155501
0	H	0.0433801	0.486309	0.155496
0	H	0.558356	0.516378	0.350833
0	H	0.958642	0.442671	0.350873
0	H	0.485387	0.0427732	0.350735
0	H	0.152183	0.776549	0.182732
0	H	0.225257	0.376479	0.182722
0	H	0.625416	0.84925	0.182714
0	H	0.10987	0.819357	0.992849
0	H	0.710945	0.892121	0.992843
0	H	0.181713	0.290682	0.992909
0	H	0.183247	0.891594	0.490154
0	H	0.109697	0.291535	0.490179
0	H	0.709713	0.818955	0.4902
0	H	0.224985	0.849419	0.687195
0	H	0.625362	0.776197	0.687156
0	H	0.152084	0.376082	0.687172
0	H	0.818318	0.109748	0.519043
0	H	0.892097	0.709806	0.519042
0	H	0.291958	0.182441	0.519046
0	H	0.776812	0.152076	0.322022
0	H	0.376431	0.225139	0.322055
0	H	0.849407	0.625114	0.322016
0	H	0.849373	0.224784	0.826465
0	H	0.776543	0.624889	0.826493
0	H	0.376268	0.152154	0.826521
0	H	0.891857	0.182094	0.0163353
0	H	0.290807	0.10925	0.0163689
0	H	0.819782	0.710518	0.0162941
0	H	0.392424	0.0805192	0.938082
0	H	0.921034	0.313196	0.937976
0	H	0.689052	0.608469	0.937815
0	H	0.080364	0.391706	0.574759
0	H	0.313245	0.921889	0.574562
0	H	0.609467	0.688691	0.57464
0	H	0.60955	0.921018	0.0712132
0	H	0.0806712	0.688196	0.0712191
0	H	0.31272	0.392985	0.07129
0	H	0.921409	0.609706	0.434581
0	H	0.68851	0.0795367	0.434617
0	H	0.392365	0.312765	0.434555
0	H	0.0582909	0.413211	0.266443
0	H	0.588673	0.646578	0.266489
0	H	0.355541	0.942127	0.266351
0	H	0.747024	0.725117	0.910121
0	H	0.979802	0.255265	0.909985
0	H	0.275786	0.0217306	0.910252
0	H	0.276305	0.254558	0.406378
0	H	0.746437	0.0215064	0.406373
0	H	0.979509	0.725773	0.406489
0	H	0.588201	0.943249	0.770922
0	H	0.355219	0.413016	0.770965
0	H	0.059615	0.646381	0.770886
0	H	0.725507	0.746879	0.602805
0	H	0.255293	0.979923	0.602905
0	H	0.022252	0.275678	0.602766
0	H	0.413577	0.0581722	0.238355
0	H	0.646544	0.588367	0.238223
0	H	0.942202	0.355067	0.23831
0	H	0.943501	0.58821	0.742741
0	H	0.413095	0.354843	0.742795
0	H	0.646236	0.0593359	0.742872
0	H	0.254727	0.276288	0.099098
0	H	0.0218856	0.746093	0.0991715
0	H	0.726215	0.979803	0.0989974
0	H	0.444931	0.137204	0.886341
0	H	0.864483	0.309046	0.886214
0	H	0.693056	0.555829	0.886117
0	H	0.137808	0.444712	0.626267
0	H	0.308791	0.864635	0.626134
0	H	0.556507	0.692917	0.626172
0	H	0.557019	0.864387	0.122966
0	H	0.137243	0.692301	0.122959
0	H	0.308737	0.445643	0.122989
0	H	0.864052	0.556837	0.383024
0	H	0.693072	0.136852	0.383057
0	H	0.44534	0.308478	0.383041
0	H	0.111113	0.470537	0.214893
0	H	0.531513	0.642147	0.214922
0	H	0.360026	0.889199	0.214868
0	H	0.804426	0.776922	0.961862
0	H	0.974331	0.198088	0.961786
0	H	0.223917	0.027134	0.961961
0	H	0.223547	0.197243	0.457949
0	H	0.803603	0.0258473	0.457922
0	H	0.97519	0.778731	0.457979
0	H	0.530986	0.890419	0.719353
0	H	0.359749	0.470202	0.719381
0	H	0.112418	0.641954	0.719358
0	H	0.778276	0.804275	0.551257
0	H	0.198192	0.975547	0.551319
0	H	0.026671	0.22283	0.55126
0	H	0.470871	0.111116	0.28988
0	H	0.642105	0.53123	0.289815
0	H	0.88941	0.359433	0.289855
0	H	0.890695	0.530966	0.794314
0	H	0.470333	0.359251	0.794321
0	H	0.641827	0.112357	0.794339
0	H	0.197418	0.22455	0.0473193
0	H	0.0274334	0.803313	0.0473781
0	H	0.778071	0.974303	0.0473071
0	H	0.549596	0.153579	0.952419
0	H	0.848045	0.397246	0.952308
0	H	0.60459	0.451295	0.952265
0	H	0.152126	0.548317	0.559941
0	H	0.398017	0.850207	0.559904
0	H	0.452882	0.603427	0.559912
0	H	0.452278	0.847876	0.0569508
0	H	0.153678	0.604134	0.056889
0	H	0.397161	0.550236	0.0568822
0	H	0.8496	0.453047	0.449297
0	H	0.603734	0.151157	0.449303
0	H	0.548886	0.398002	0.449374
0	H	0.214817	0.484837	0.281145
0	H	0.517169	0.731525	0.281175
0	H	0.270525	0.78555	0.281216
0	H	0.818608	0.881973	0.896281
0	H	0.0649174	0.183674	0.896216
0	H	0.119052	0.936264	0.896269
0	H	0.119675	0.182539	0.391763
0	H	0.818003	0.936525	0.391691
0	H	0.0646281	0.882426	0.39171
0	H	0.516414	0.786501	0.785542
0	H	0.270601	0.484913	0.785593
0	H	0.216252	0.731287	0.785643
0	H	0.882016	0.818789	0.617533
0	H	0.1837	0.0648614	0.617556
0	H	0.937104	0.119074	0.617511
0	H	0.485311	0.214878	0.223655
0	H	0.731133	0.516393	0.223613
0	H	0.785503	0.270138	0.223639
0	H	0.786854	0.516471	0.728153
0	H	0.484588	0.269872	0.72807
0	H	0.731226	0.215967	0.727984
0	H	0.183106	0.119404	0.11289
0	H	0.936742	0.81761	0.112963
0	H	0.882887	0.0652267	0.113056
0	H	0.567883	0.257007	0.932293
0	H	0.744697	0.31189	0.932176
0	H	0.689628	0.432986	0.932206
0	H	0.256037	0.567874	0.57995
0	H	0.313425	0.746256	0.579918
0	H	0.433409	0.687833	0.579861
0	H	0.434153	0.744442	0.0769601
0	H	0.257056	0.689579	0.076938
0	H	0.311979	0.568398	0.0768644
0	H	0.745756	0.433542	0.429222
0	H	0.688207	0.255093	0.429219
0	H	0.568458	0.313713	0.429333
0	H	0.234491	0.588726	0.261046
0	H	0.413297	0.647049	0.261063
0	H	0.35479	0.766049	0.261157
0	H	0.92245	0.901331	0.916197
0	H	0.980168	0.0798089	0.916156
0	H	0.0997925	0.0208374	0.916211
0	H	0.100378	0.078713	0.411775
0	H	0.921878	0.021163	0.411686
0	H	0.980272	0.901857	0.411668
0	H	0.412629	0.767043	0.765493
0	H	0.355209	0.588721	0.765456
0	H	0.235458	0.646811	0.765535
0	H	0.901507	0.922621	0.597406
0	H	0.0798782	0.980295	0.597465
0	H	0.0213297	0.0995312	0.597471
0	H	0.589161	0.234385	0.243639
0	H	0.646404	0.412574	0.243682
0	H	0.766396	0.354732	0.243654
0	H	0.76738	0.412588	0.748137
0	H	0.58851	0.354425	0.748085
0	H	0.646825	0.235349	0.747958
0	H	0.0793204	0.100075	0.0929093
0	H	0.0213739	0.921461	0.0929538
0	H	0.902225	0.980754	0.0930232
0	H	0.510343	0.212745	0.985263
0	H	0.788892	0.298645	0.985104
0	H	0.703056	0.490682	0.985087
0	H	0.211894	0.509823	0.527094
0	H	0.299675	0.7903	0.527041
0	H	0.491369	0.701754	0.527038
0	H	0.491677	0.788941	0.0240186
0	H	0.212688	0.702675	0.0240311
0	H	0.298747	0.510727	0.0240002
0	H	0.789735	0.491453	0.482127
0	H	0.702103	0.211225	0.482128
0	H	0.510471	0.299592	0.482168
0	H	0.176664	0.544908	0.313946
0	H	0.45711	0.633092	0.313981
0	H	0.368879	0.824066	0.314011
0	H	0.878765	0.844547	0.863007
0	H	0.967185	0.123489	0.862968
0	H	0.156706	0.0341327	0.863066
0	H	0.158141	0.122812	0.358886
0	H	0.877822	0.0349217	0.358831
0	H	0.966387	0.843877	0.35884
0	H	0.456559	0.824861	0.818396
0	H	0.369032	0.544862	0.8184
0	H	0.177601	0.632821	0.818439
0	H	0.843689	0.87875	0.650311
0	H	0.123739	0.966401	0.650352
0	H	0.0353637	0.157435	0.650345
0	H	0.545078	0.176455	0.190775
0	H	0.632725	0.456612	0.19077
0	H	0.82423	0.368521	0.190764
0	H	0.825151	0.456638	0.695252
0	H	0.544494	0.368247	0.695202
0	H	0.632897	0.177274	0.695147
0	H	0.122872	0.156795	0.146125
0	H	0.0345037	0.877956	0.146173
0	H	0.845312	0.967284	0.146188
