#******************************************
#
# CIF file created by Zeo++
# Zeo++ is an open source package to
# analyze microporous materials
#
#*******************************************

_cell_length_a		4.10784(0)
_cell_length_b		24.4718(0)
_cell_length_c		34.839(0)
_cell_angle_alpha		90(0)
_cell_angle_beta		90(0)
_cell_angle_gamma		90(0)

_symmetry_space_group_name_H-M		'P1'
_symmetry_Int_Tables_number		1
_symmetry_cell_setting		Monoclinic

loop_
_symmetry_equiv_pos_as_xyz
'+x,+y,+z'

loop_
_atom_site_label
_atom_site_type_symbol
_atom_site_fract_x
_atom_site_fract_y
_atom_site_fract_z
0	O	0.960777	0.746379	0.957781
0	O	0.628545	0.250558	0.458492
0	O	0.110596	0.247679	0.540165
0	O	0.442527	0.749048	0.0405637
0	O	0.916665	0.794424	0.896627
0	O	0.664614	0.201811	0.397785
0	O	0.155977	0.295639	0.601369
0	O	0.407875	0.700239	0.101242
0	O	0.401204	0.00138711	0.785891
0	O	0.157404	0.995113	0.2875
0	O	0.670547	0.500879	0.711921
0	O	0.913745	0.495657	0.211701
0	O	0.0535154	0.0545751	0.844385
0	O	0.496941	0.942387	0.346174
0	O	0.0175995	0.553299	0.653404
0	O	0.575003	0.443743	0.153075
0	O	0.758157	0.952813	0.659376
0	O	0.801641	0.0458511	0.160661
0	O	0.313429	0.454251	0.83838
0	O	0.269981	0.544422	0.338591
0	O	0.350957	0.980299	0.617575
0	O	0.199779	0.0152082	0.118133
0	O	0.720573	0.481736	0.880182
0	O	0.871814	0.513781	0.381118
0	O	0.814623	0.749899	0.785213
0	O	0.779595	0.246607	0.286385
0	O	0.256937	0.251327	0.712544
0	O	0.292111	0.745187	0.212873
0	O	0.488631	0.697001	0.726656
0	O	0.102614	0.300321	0.227102
0	O	0.582974	0.198432	0.771099
0	O	0.968982	0.798886	0.272148
0	N	0.768866	0.998609	0.983238
0	N	0.825823	0.998848	0.48205
0	N	0.310166	0.500048	0.516169
0	N	0.253674	0.497826	0.0155392
0	N	0.30701	0.736404	0.581872
0	N	0.252405	0.260656	0.0822305
0	N	0.764584	0.237836	0.915892
0	N	0.819177	0.759226	0.417017
0	C	0.0145347	0.830489	0.926494
0	C	0.535013	0.166746	0.427201
0	C	0.0548816	0.331701	0.57172
0	C	0.534548	0.665121	0.0715761
0	C	0.00719011	0.802693	0.964064
0	C	0.554073	0.19496	0.464314
0	C	0.060776	0.303935	0.534215
0	C	0.51355	0.693366	0.0344247
0	C	0.987335	0.830284	0.997361
0	C	0.602311	0.166529	0.497359
0	C	0.0815865	0.331685	0.501126
0	C	0.466831	0.665116	0.00114437
0	H	0.93557	0.809915	0.023621
0	H	0.676588	0.188116	0.524011
0	H	0.14069	0.310537	0.473454
0	H	0.399862	0.685937	0.975848
0	C	0.960947	0.88921	0.992935
0	C	0.629122	0.108327	0.492077
0	C	0.108042	0.390334	0.505912
0	C	0.440099	0.606631	0.00606519
0	C	0.781743	0.91668	0.0232134
0	C	0.810618	0.0803124	0.523842
0	C	0.293763	0.41826	0.474346
0	C	0.26486	0.57912	0.975587
0	H	0.863842	0.897581	0.0504296
0	H	0.734231	0.0997964	0.551096
0	H	0.210676	0.398971	0.447404
0	H	0.340292	0.598382	0.94805
0	H	0.511316	0.907851	0.0212719
0	H	0.0744737	0.0889429	0.520909
0	H	0.563556	0.409439	0.477595
0	H	0.000353035	0.587723	0.977192
0	C	0.858319	0.977291	0.0205827
0	C	0.728311	0.020052	0.521303
0	C	0.214017	0.478604	0.476897
0	C	0.344042	0.518671	0.978149
0	H	0.7275	0.998644	0.0438799
0	H	0.864476	0.998749	0.543985
0	H	0.344658	0.500296	0.453989
0	H	0.207774	0.497611	0.955116
0	H	0.118998	0.981002	0.0273953
0	H	0.459971	0.0162952	0.526648
0	H	0.951052	0.482162	0.471204
0	H	0.610052	0.514676	0.97176
0	C	0.00034551	0.977764	0.953114
0	C	0.581927	0.0196093	0.452867
0	C	0.065062	0.479212	0.545314
0	C	0.483954	0.518446	0.0457466
0	H	0.26312	0.990834	0.957332
0	H	0.319519	0.00748542	0.457622
0	H	0.807438	0.492289	0.540569
0	H	0.751055	0.506148	0.0414864
0	C	0.0211675	0.916095	0.958052
0	C	0.561033	0.0812315	0.457758
0	C	0.0473107	0.417485	0.540468
0	C	0.507793	0.579876	0.0407242
0	C	0.0738554	0.885903	0.922647
0	C	0.480154	0.111411	0.423173
0	C	0.995715	0.387117	0.575625
0	C	0.589574	0.609818	0.0755582
0	C	0.968321	0.740737	0.914935
0	C	0.619049	0.255722	0.415453
0	C	0.10354	0.24201	0.582967
0	C	0.452748	0.754171	0.0836726
0	H	0.219568	0.733773	0.908877
0	H	0.364393	0.262708	0.410017
0	H	0.852032	0.235169	0.588933
0	H	0.707239	0.761252	0.0891659
0	H	0.777925	0.713419	0.905187
0	H	0.813539	0.282286	0.406215
0	H	0.29401	0.214744	0.592618
0	H	0.258334	0.780784	0.0929899
0	C	0.888193	0.995069	0.912105
0	C	0.696154	0.00290592	0.411968
0	C	0.183237	0.496365	0.586116
0	C	0.375171	0.501788	0.0868266
0	H	0.623709	0.984373	0.90709
0	H	0.95942	0.0141057	0.406889
0	H	0.448176	0.485733	0.590777
0	H	0.112302	0.51277	0.0922426
0	H	0.922378	0.0418204	0.909019
0	H	0.68036	0.95601	0.40913
0	H	0.149303	0.54105	0.588895
0	H	0.391117	0.456979	0.0899755
0	C	0.0650521	0.967859	0.880133
0	C	0.492879	0.0292716	0.381546
0	C	0.00662236	0.469146	0.617924
0	C	0.578517	0.527975	0.117471
0	C	0.156632	0.912593	0.88559
0	C	0.386377	0.0838841	0.387072
0	C	0.91449	0.413946	0.612489
0	C	0.684869	0.582574	0.111871
0	C	0.322866	0.885444	0.855663
0	C	0.216999	0.110948	0.357393
0	C	0.748051	0.386721	0.642215
0	C	0.853938	0.609555	0.141669
0	H	0.402249	0.843052	0.860492
0	H	0.136279	0.153459	0.361596
0	H	0.669014	0.344401	0.637272
0	H	0.935252	0.652054	0.137624
0	C	0.409423	0.913492	0.822205
0	C	0.142103	0.0834965	0.323265
0	C	0.661545	0.414765	0.675643
0	C	0.92926	0.582252	0.175893
0	H	0.556681	0.892001	0.800775
0	H	0.0306891	0.106622	0.299963
0	H	0.514497	0.393363	0.697007
0	H	0.0408947	0.605243	0.199239
0	C	0.322339	0.968771	0.817422
0	C	0.223978	0.0278786	0.319452
0	C	0.749317	0.469984	0.680426
0	C	0.84686	0.526653	0.179788
0	C	0.147647	0.996758	0.846597
0	C	0.398243	0.999985	0.348809
0	C	0.924411	0.498123	0.651361
0	C	0.672117	0.498773	0.150387
0	C	0.801384	0.0616381	0.983826
0	C	0.801883	0.935674	0.483286
0	C	0.270307	0.560577	0.515074
0	C	0.268943	0.437151	0.0148446
0	H	0.707764	0.0762048	0.00941629
0	H	0.903601	0.920864	0.51055
0	H	0.368286	0.575503	0.48782
0	H	0.172339	0.422638	0.989247
0	H	0.663028	0.0777346	0.959268
0	H	0.943922	0.919442	0.459142
0	H	0.40852	0.576914	0.53941
0	H	0.12744	0.421131	0.0391852
0	H	0.0573933	0.075127	0.980493
0	H	0.547484	0.92155	0.480963
0	H	0.0127746	0.573829	0.517522
0	H	0.522259	0.42276	0.0180249
0	C	0.589074	0.97286	0.756331
0	C	0.991055	0.0240182	0.256661
0	C	0.482469	0.473827	0.741402
0	C	0.0805963	0.523032	0.242582
0	H	0.623762	0.00800533	0.735688
0	H	0.976614	0.988485	0.23555
0	H	0.447871	0.507054	0.762076
0	H	0.0948665	0.489457	0.263682
0	H	0.448112	0.938899	0.743916
0	H	0.117885	0.0595308	0.244631
0	H	0.623609	0.440062	0.753855
0	H	0.953511	0.558374	0.254642
0	H	0.830518	0.959204	0.767009
0	H	0.749132	0.0380112	0.267067
0	H	0.240739	0.460496	0.730725
0	H	0.322741	0.536728	0.232166
0	C	0.334723	0.0879379	0.855276
0	C	0.21279	0.908962	0.356262
0	C	0.736398	0.58665	0.642472
0	C	0.859241	0.410267	0.142976
0	H	0.235347	0.129569	0.852438
0	H	0.309227	0.867016	0.35382
0	H	0.836086	0.628214	0.645313
0	H	0.762467	0.368375	0.145428
0	H	0.550121	0.0811233	0.836497
0	H	0.0212649	0.916011	0.335328
0	H	0.521242	0.57973	0.661254
0	H	0.0504871	0.417399	0.163924
0	H	0.394934	0.0794767	0.885483
0	H	0.142852	0.91782	0.386292
0	H	0.676663	0.578081	0.61227
0	H	0.928731	0.419206	0.11295
0	C	0.663044	0.906882	0.633189
0	C	0.909332	0.0906213	0.134781
0	C	0.408546	0.408308	0.864568
0	C	0.162306	0.589195	0.364471
0	C	0.490449	0.932946	0.602396
0	C	0.0679433	0.0633976	0.102958
0	C	0.581102	0.434373	0.895367
0	C	0.00358413	0.561965	0.396289
0	C	0.384447	0.905339	0.570327
0	C	0.156945	0.0911741	0.0704529
0	C	0.687124	0.406773	0.927434
0	C	0.914542	0.589759	0.428781
0	H	0.266192	0.924332	0.54427
0	H	0.269292	0.0724613	0.0438962
0	H	0.805309	0.425748	0.953491
0	H	0.80212	0.571022	0.455337
0	C	0.417099	0.847509	0.573835
0	C	0.12479	0.149307	0.0739342
0	C	0.654494	0.348941	0.923928
0	C	0.946819	0.647877	0.425315
0	C	0.358204	0.814904	0.537678
0	C	0.182709	0.182068	0.0378032
0	C	0.713385	0.316333	0.960082
0	C	0.888858	0.680641	0.461443
0	H	0.0982277	0.821243	0.529562
0	H	0.44267	0.174934	0.0298732
0	H	0.973346	0.322673	0.9682
0	H	0.6289	0.67351	0.469368
0	H	0.508649	0.833304	0.514238
0	H	0.0269416	0.164102	0.0146541
0	H	0.562867	0.334741	0.983513
0	H	0.0446253	0.66268	0.484598
0	C	0.443698	0.754807	0.543871
0	C	0.107995	0.242601	0.0443689
0	C	0.627874	0.256232	0.953898
0	C	0.963581	0.741168	0.454868
0	H	0.333546	0.730924	0.520147
0	H	0.215512	0.266406	0.0204052
0	H	0.738096	0.232353	0.977616
0	H	0.856066	0.764983	0.478836
0	H	0.715715	0.750037	0.543212
0	H	0.841146	0.248239	0.0438396
0	H	0.355875	0.251469	0.954547
0	H	0.230477	0.74681	0.455405
0	C	0.513096	0.759414	0.613518
0	C	0.0431567	0.238176	0.113909
0	C	0.558536	0.260844	0.884242
0	C	0.0284246	0.736742	0.385339
0	H	0.780982	0.745757	0.611933
0	H	0.779642	0.252814	0.112488
0	H	0.290634	0.24719	0.885825
0	H	0.291939	0.751386	0.386762
0	C	0.520701	0.821251	0.607483
0	C	0.0372969	0.176146	0.107977
0	C	0.550899	0.322684	0.890269
0	C	0.034303	0.674719	0.391271
0	C	0.643613	0.851409	0.639715
0	C	0.940308	0.145596	0.140957
0	C	0.427989	0.352834	0.85804
0	C	0.13129	0.644168	0.358291
0	C	0.434553	0.975903	0.660223
0	C	0.118679	0.0201659	0.16082
0	C	0.637042	0.477337	0.837535
0	C	0.952915	0.518739	0.338438
0	H	0.277888	0.944353	0.671351
0	H	0.276625	0.0515598	0.172586
0	H	0.793685	0.445781	0.826405
0	H	0.79498	0.55013	0.326668
0	H	0.453579	0.0151357	0.672681
0	H	0.0877057	0.981203	0.173489
0	H	0.618029	0.516565	0.82507
0	H	0.98388	0.479776	0.325762
0	C	0.381138	0.745771	0.653891
0	C	0.178233	0.252426	0.154128
0	C	0.690432	0.247205	0.843864
0	C	0.893369	0.750993	0.345123
0	H	0.115348	0.757577	0.656092
0	H	0.444624	0.240897	0.156036
0	H	0.956209	0.259012	0.841658
0	H	0.62697	0.739469	0.343216
0	H	0.387103	0.701279	0.658988
0	H	0.152781	0.296813	0.159367
0	H	0.684479	0.20271	0.838767
0	H	0.918832	0.795382	0.339885
0	C	0.574006	0.77359	0.684967
0	C	0.01041	0.223619	0.186161
0	C	0.497596	0.275014	0.812785
0	C	0.0611815	0.722186	0.31309
0	C	0.708737	0.826	0.677551
0	C	0.890511	0.17036	0.179229
0	C	0.362814	0.327434	0.820205
0	C	0.18107	0.668924	0.320022
0	C	0.870556	0.853573	0.707532
0	C	0.73416	0.142275	0.209235
0	C	0.201048	0.354998	0.790224
0	C	0.337415	0.640847	0.290015
0	H	0.96526	0.894837	0.702544
0	H	0.638967	0.101348	0.203525
0	H	0.106309	0.396261	0.795213
0	H	0.432608	0.599915	0.295726
0	C	0.916719	0.829465	0.743448
0	C	0.687869	0.166721	0.244911
0	C	0.154894	0.330905	0.754305
0	C	0.383709	0.665286	0.254336
0	H	0.0606236	0.850799	0.765289
0	H	0.542787	0.145664	0.266549
0	H	0.0109689	0.352233	0.732465
0	H	0.528757	0.644228	0.232695
0	C	0.791895	0.776943	0.750715
0	C	0.807923	0.219551	0.252089
0	C	0.27972	0.27838	0.747037
0	C	0.263671	0.718114	0.247162
0	C	0.625051	0.748344	0.720875
0	C	0.966775	0.248783	0.222174
0	C	0.446552	0.249777	0.776879
0	C	0.104742	0.747352	0.277072
0	C	0.309835	0.675747	0.582228
0	C	0.245267	0.321443	0.0828864
0	C	0.76177	0.177172	0.915528
0	C	0.826318	0.820008	0.416366
0	H	0.164824	0.661018	0.557844
0	H	0.386422	0.336142	0.0581394
0	H	0.906764	0.162438	0.939913
0	H	0.685091	0.83471	0.441104
0	H	0.200928	0.660769	0.609095
0	H	0.347076	0.336227	0.110376
0	H	0.870619	0.162203	0.888657
0	H	0.724552	0.834791	0.388874
0	H	0.560504	0.659864	0.579768
0	H	0.00126662	0.338357	0.0802116
0	H	0.511086	0.1613	0.917988
0	H	0.070329	0.836933	0.419037
0	C	0.0209347	0.775239	0.814036
0	C	0.570742	0.221711	0.314906
0	C	0.0506764	0.276664	0.68372
0	C	0.500824	0.720283	0.184344
0	H	0.0256805	0.744898	0.837388
0	H	0.575989	0.251957	0.338061
0	H	0.0459339	0.24633	0.660366
0	H	0.495585	0.750522	0.161185
0	H	0.913669	0.813906	0.824497
0	H	0.680062	0.183346	0.324886
0	H	0.157904	0.315335	0.673259
0	H	0.391472	0.681923	0.174365
0	H	0.266435	0.781502	0.802802
0	H	0.316944	0.216652	0.304333
0	H	0.805133	0.282927	0.694948
0	H	0.754624	0.715216	0.194917
0	C	0.737372	0.655105	0.732558
0	C	0.856825	0.342534	0.233392
0	C	0.334234	0.156541	0.765197
0	C	0.214758	0.841101	0.26586
0	H	0.59247	0.617295	0.731087
0	H	0.0125711	0.379778	0.231859
0	H	0.479097	0.11873	0.76667
0	H	0.0590035	0.878343	0.267394
0	H	0.850514	0.660058	0.760873
0	H	0.749023	0.338058	0.261957
0	H	0.221109	0.16149	0.73688
0	H	0.322515	0.836632	0.237291
0	H	0.917135	0.656272	0.709314
0	H	0.67998	0.342234	0.210007
0	H	0.154404	0.157707	0.788434
0	H	0.391626	0.840803	0.289244
