#******************************************
#
# CIF file created by Zeo++
# Zeo++ is an open source package to
# analyze microporous materials
#
#*******************************************

_cell_length_a		23.2968(0)
_cell_length_b		22.9361(0)
_cell_length_c		8.81069(0)
_cell_angle_alpha		90(0)
_cell_angle_beta		90(0)
_cell_angle_gamma		90(0)

_symmetry_space_group_name_H-M		'P1'
_symmetry_Int_Tables_number		1
_symmetry_cell_setting		Monoclinic

loop_
_symmetry_equiv_pos_as_xyz
'+x,+y,+z'

loop_
_atom_site_label
_atom_site_type_symbol
_atom_site_fract_x
_atom_site_fract_y
_atom_site_fract_z
0	O	0.442109	0.745461	0.84674
0	O	0.0687532	0.781905	0.854006
0	O	0.271026	0.944334	0.350055
0	O	0.234772	0.577164	0.353338
0	O	0.566753	0.278842	0.134831
0	O	0.940103	0.242638	0.137998
0	O	0.736442	0.0794429	0.637079
0	O	0.772748	0.447079	0.632827
0	O	0.464432	0.625021	0.905823
0	O	0.0458513	0.902466	0.906998
0	O	0.389766	0.96652	0.40369
0	O	0.116111	0.554603	0.407721
0	O	0.543822	0.399321	0.078317
0	O	0.96254	0.122052	0.0827784
0	O	0.617834	0.0567719	0.582821
0	O	0.891588	0.469296	0.579176
0	O	0.661071	0.672945	0.0144845
0	O	0.849761	0.853899	0.0239888
0	O	0.343385	0.165366	0.527217
0	O	0.162891	0.355187	0.524171
0	O	0.347338	0.350927	0.969728
0	O	0.158299	0.170766	0.960521
0	O	0.66522	0.858356	0.457057
0	O	0.845549	0.668859	0.463058
0	O	0.636339	0.792407	0.963553
0	O	0.874564	0.734609	0.967168
0	O	0.2257	0.141315	0.470398
0	O	0.280331	0.379638	0.468197
0	O	0.372287	0.231506	0.0211107
0	O	0.133699	0.289813	0.0191059
0	O	0.782705	0.882801	0.515672
0	O	0.727965	0.644814	0.517756
0	O	0.529496	0.618655	0.271884
0	O	0.981614	0.910826	0.278091
0	O	0.395499	0.032655	0.777031
0	O	0.109338	0.488816	0.77635
0	O	0.478191	0.405186	0.712583
0	O	0.026629	0.113925	0.709296
0	O	0.612912	0.991143	0.209426
0	O	0.898983	0.5353	0.210988
0	O	0.582764	0.585562	0.538514
0	O	0.928311	0.94416	0.542457
0	O	0.429422	0.0849811	0.0421786
0	O	0.075474	0.436434	0.0415071
0	O	0.425543	0.439063	0.446886
0	O	0.0798989	0.0808353	0.444986
0	O	0.579844	0.938973	0.943072
0	O	0.9332	0.5879	0.946244
0	O	0.726593	0.481114	0.264005
0	O	0.782429	0.0450372	0.265349
0	O	0.534504	0.23019	0.767511
0	O	0.972879	0.289406	0.767072
0	O	0.281491	0.54328	0.722177
0	O	0.225554	0.979331	0.721842
0	O	0.473444	0.793948	0.214923
0	O	0.0350619	0.734978	0.222536
0	O	0.676686	0.519303	0.984878
0	O	0.832864	0.00632795	0.987124
0	O	0.495987	0.179983	0.489025
0	O	0.0114839	0.339595	0.488238
0	O	0.331692	0.505024	0.000846664
0	O	0.175386	0.018407	0.000123301
0	O	0.512273	0.843213	0.494537
0	O	0.996724	0.684153	0.500591
0	C	0.520346	0.832831	0.927751
0	C	0.990677	0.694737	0.933445
0	C	0.185629	0.0237434	0.432824
0	C	0.320506	0.497066	0.433818
0	C	0.488504	0.191346	0.0557018
0	C	0.0178442	0.329697	0.055429
0	C	0.822258	0.000425559	0.554379
0	C	0.687347	0.527535	0.55198
0	H	0.47389	0.837249	0.898904
0	H	0.037225	0.690498	0.905498
0	H	0.181277	0.976526	0.404575
0	H	0.325263	0.544155	0.40445
0	H	0.535048	0.187074	0.0837571
0	H	0.971343	0.333993	0.0838447
0	H	0.826448	0.0475978	0.583276
0	H	0.682352	0.480533	0.581974
0	H	0.544061	0.855818	0.835044
0	H	0.967317	0.671543	0.840429
0	H	0.162929	0.0476229	0.339865
0	H	0.342978	0.472557	0.341483
0	H	0.465079	0.168371	0.148947
0	H	0.0413534	0.352943	0.148091
0	H	0.844941	0.976422	0.647189
0	H	0.664898	0.552355	0.643836
0	C	0.537015	0.769626	0.928815
0	C	0.973684	0.757819	0.934149
0	C	0.247847	0.0406364	0.433426
0	C	0.25819	0.480546	0.43453
0	C	0.47166	0.254497	0.0546042
0	C	0.034789	0.266601	0.0547259
0	C	0.760097	0.983329	0.553239
0	C	0.749728	0.543794	0.551532
0	C	0.495108	0.726679	0.900839
0	C	0.0155228	0.800776	0.906295
0	C	0.289895	0.998103	0.40366
0	C	0.216075	0.523223	0.406134
0	C	0.513535	0.297533	0.082053
0	C	0.993036	0.223698	0.0838689
0	C	0.717838	0.0256429	0.583068
0	C	0.791669	0.500967	0.580219
0	C	0.507464	0.666927	0.918618
0	C	0.00300514	0.860516	0.922846
0	C	0.348791	0.0102938	0.420591
0	C	0.157184	0.510775	0.42257
0	C	0.500955	0.357264	0.0652038
0	C	0.00540692	0.163953	0.0665744
0	C	0.659009	0.013206	0.565682
0	C	0.85063	0.513229	0.564339
0	C	0.563156	0.647905	0.957113
0	C	0.94739	0.879419	0.962237
0	C	0.367811	0.066459	0.461706
0	C	0.1382	0.454366	0.461515
0	C	0.445155	0.376158	0.0273697
0	C	0.0608407	0.145014	0.0255503
0	C	0.640262	0.95702	0.523895
0	C	0.869828	0.569596	0.525696
0	C	0.606025	0.690612	0.974092
0	C	0.904639	0.836652	0.980536
0	C	0.325959	0.110008	0.481748
0	C	0.180109	0.410798	0.480248
0	C	0.402395	0.33335	0.0102801
0	C	0.103568	0.187728	0.0060969
0	C	0.682321	0.913694	0.503607
0	C	0.828072	0.613292	0.506635
0	C	0.593289	0.75068	0.959497
0	C	0.91732	0.776619	0.964648
0	C	0.266747	0.097595	0.465795
0	C	0.239282	0.42342	0.464782
0	C	0.415295	0.273305	0.02465
0	C	0.0910233	0.247768	0.0226305
0	C	0.741454	0.926333	0.520277
0	C	0.76884	0.600857	0.521469
0	C	0.395519	0.737882	0.955214
0	C	0.114807	0.790343	0.963632
0	C	0.279419	0.897289	0.458993
0	C	0.22635	0.624154	0.462328
0	C	0.612923	0.286409	0.025119
0	C	0.893531	0.234341	0.0297991
0	C	0.727735	0.12656	0.528561
0	C	0.781031	0.400117	0.523691
0	H	0.358811	0.755603	0.893273
0	H	0.151846	0.772129	0.904079
0	H	0.260656	0.859942	0.400138
0	H	0.244357	0.661661	0.402448
0	H	0.649864	0.26875	0.0862258
0	H	0.856859	0.252944	0.0901507
0	H	0.746593	0.163878	0.587363
0	H	0.762869	0.36264	0.583343
0	H	0.404993	0.763154	0.0581132
0	H	0.104744	0.765928	0.0675681
0	H	0.256218	0.907782	0.564053
0	H	0.250229	0.614038	0.566558
0	H	0.603116	0.261067	0.922563
0	H	0.903325	0.25844	0.925204
0	H	0.750708	0.116229	0.423061
0	H	0.757232	0.410367	0.419415
0	H	0.390137	0.691469	0.980734
0	H	0.12003	0.836962	0.986732
0	H	0.325401	0.891424	0.479931
0	H	0.180424	0.629542	0.484995
0	H	0.618162	0.332807	0.9993
0	H	0.887888	0.187712	0.00755782
0	H	0.681689	0.132365	0.508464
0	H	0.826946	0.394583	0.50106
0	C	0.444707	0.616596	0.750305
0	C	0.0651213	0.909128	0.750417
0	C	0.397728	0.94915	0.245812
0	C	0.107968	0.573288	0.25101
0	C	0.563976	0.407127	0.233694
0	C	0.943962	0.114816	0.239778
0	C	0.609578	0.0737204	0.740913
0	C	0.899358	0.450137	0.73562
0	H	0.430155	0.658095	0.702517
0	H	0.0777507	0.866857	0.703422
0	H	0.35679	0.93478	0.197664
0	H	0.148817	0.588059	0.203097
0	H	0.579164	0.365534	0.279522
0	H	0.931375	0.156896	0.287963
0	H	0.650324	0.088493	0.78937
0	H	0.858336	0.435607	0.782983
0	H	0.409038	0.585974	0.765002
0	H	0.102164	0.938143	0.762298
0	H	0.428272	0.913025	0.255181
0	H	0.077452	0.609329	0.263089
0	H	0.599229	0.438269	0.219349
0	H	0.906986	0.0856759	0.228303
0	H	0.57861	0.109472	0.731887
0	H	0.929579	0.413846	0.723194
0	H	0.479259	0.597306	0.682529
0	H	0.0309358	0.929564	0.683469
0	H	0.416089	0.985582	0.181415
0	H	0.0894999	0.537474	0.184646
0	H	0.529423	0.425604	0.303
0	H	0.978492	0.0943119	0.305371
0	H	0.591626	0.0369401	0.804816
0	H	0.91807	0.485619	0.802718
0	C	0.70164	0.674851	0.88863
0	C	0.809576	0.85717	0.89755
0	C	0.345153	0.207205	0.402941
0	C	0.160537	0.313908	0.39868
0	C	0.306545	0.348423	0.0949743
0	C	0.198235	0.163997	0.0865383
0	C	0.663456	0.816215	0.580642
0	C	0.847166	0.710273	0.588339
0	H	0.686019	0.648894	0.792744
0	H	0.826252	0.885417	0.807529
0	H	0.373621	0.191822	0.312435
0	H	0.132231	0.329992	0.308627
0	H	0.321416	0.375108	0.190343
0	H	0.180793	0.134476	0.172663
0	H	0.633712	0.830701	0.669252
0	H	0.875343	0.694491	0.679036
0	H	0.73974	0.654557	0.938708
0	H	0.77192	0.877149	0.950809
0	H	0.363313	0.24578	0.458279
0	H	0.141902	0.27536	0.453024
0	H	0.268075	0.367611	0.0438978
0	H	0.235448	0.144106	0.030932
0	H	0.6469	0.777259	0.523607
0	H	0.865643	0.748929	0.534096
0	H	0.709135	0.720217	0.85581
0	H	0.800811	0.813198	0.85557
0	H	0.301622	0.214829	0.360796
0	H	0.20394	0.305888	0.356169
0	H	0.299984	0.303012	0.128777
0	H	0.208031	0.206861	0.134224
0	H	0.706737	0.809653	0.62567
0	H	0.803574	0.717978	0.629884
0	C	0.667095	0.796444	0.107294
0	C	0.843006	0.730175	0.109555
0	C	0.221483	0.172249	0.614487
0	C	0.284179	0.348191	0.611587
0	C	0.341666	0.2271	0.877249
0	C	0.16521	0.294016	0.876628
0	C	0.787215	0.852091	0.371337
0	C	0.724233	0.676039	0.374017
0	H	0.638932	0.816373	0.192589
0	H	0.871005	0.711151	0.196597
0	H	0.202147	0.143381	0.699588
0	H	0.303203	0.376861	0.697584
0	H	0.369876	0.206886	0.792537
0	H	0.137074	0.312516	0.789122
0	H	0.806498	0.881164	0.286635
0	H	0.705458	0.647207	0.288032
0	H	0.702802	0.82539	0.0782575
0	H	0.808214	0.700248	0.0794129
0	H	0.192593	0.208282	0.586026
0	H	0.313053	0.312171	0.583009
0	H	0.305871	0.198311	0.906578
0	H	0.199759	0.324332	0.906092
0	H	0.816205	0.816139	0.399661
0	H	0.695176	0.711996	0.401988
0	H	0.682331	0.753434	0.14315
0	H	0.826588	0.772951	0.143706
0	H	0.263734	0.187974	0.650333
0	H	0.24182	0.332341	0.646287
0	H	0.326543	0.270023	0.840406
0	H	0.181965	0.251246	0.84352
0	H	0.745063	0.83625	0.335004
0	H	0.766596	0.691992	0.339689
0	C	0.575728	0.583997	0.972439
0	C	0.935019	0.943385	0.976963
0	C	0.430878	0.0784222	0.477105
0	C	0.0751583	0.442154	0.476224
0	C	0.432411	0.440052	0.0126182
0	C	0.0729617	0.0810163	0.0102349
0	C	0.577258	0.944822	0.508104
0	C	0.932926	0.581641	0.511531
0	H	0.535559	0.558231	0.955196
0	H	0.975422	0.968912	0.96069
0	H	0.455704	0.0372624	0.460122
0	H	0.0502016	0.48324	0.459161
0	H	0.4725	0.465922	0.0302052
0	H	0.0323892	0.0556729	0.0257077
0	H	0.552259	0.985849	0.525573
0	H	0.957752	0.540467	0.528428
0	H	0.605281	0.570743	0.878106
0	H	0.906043	0.956857	0.881704
0	H	0.444375	0.108082	0.382554
0	H	0.0617749	0.412483	0.381613
0	H	0.402808	0.453104	0.107029
0	H	0.101653	0.0671937	0.105737
0	H	0.563842	0.91493	0.602239
0	H	0.9463	0.611177	0.606448
0	C	0.602174	0.567679	0.121838
0	C	0.908173	0.959851	0.125701
0	C	0.44731	0.10509	0.62635
0	C	0.0587366	0.415446	0.625451
0	C	0.405952	0.456524	0.863344
0	C	0.0999383	0.064665	0.861596
0	C	0.560966	0.918401	0.358463
0	C	0.949494	0.60849	0.362582
0	C	0.578689	0.584395	0.262125
0	C	0.931928	0.944188	0.266546
0	C	0.430373	0.0817429	0.766738
0	C	0.0750686	0.439314	0.765838
0	C	0.429272	0.439798	0.722891
0	C	0.0762308	0.0804492	0.720791
0	C	0.578108	0.941969	0.218488
0	C	0.93327	0.584784	0.221943
0	C	0.606582	0.570195	0.399506
0	C	0.903848	0.958697	0.403434
0	C	0.445149	0.109683	0.9041
0	C	0.0603679	0.411419	0.903276
0	C	0.401409	0.454294	0.585673
0	C	0.104314	0.06599	0.583874
0	C	0.56363	0.91419	0.0806766
0	C	0.948068	0.612822	0.0847556
0	C	0.658435	0.538731	0.402304
0	C	0.851449	0.989143	0.405159
0	C	0.476957	0.161776	0.906622
0	C	0.0292038	0.358929	0.905835
0	C	0.349558	0.485732	0.583233
0	C	0.156585	0.0353257	0.582089
0	C	0.531643	0.862221	0.0772423
0	C	0.979143	0.665375	0.0827601
0	C	0.680192	0.518982	0.262251
0	C	0.829299	0.00781281	0.264505
0	C	0.496603	0.183539	0.766369
0	C	0.0102087	0.336542	0.765664
0	C	0.327895	0.505404	0.723462
0	C	0.178752	0.0166442	0.722724
0	C	0.511641	0.840349	0.217021
0	C	0.997957	0.687656	0.223219
0	C	0.652741	0.533899	0.124573
0	C	0.856999	0.992694	0.127283
0	C	0.481403	0.155889	0.628818
0	C	0.0253936	0.364128	0.627983
0	C	0.355446	0.490415	0.860952
0	C	0.151125	0.0318498	0.859994
0	C	0.526818	0.867644	0.355103
0	C	0.982803	0.659839	0.360604
0	C	0.476736	0.585767	0.248329
0	C	0.0338544	0.944397	0.252791
0	C	0.42696	0.978275	0.75797
0	C	0.0774358	0.542828	0.754884
0	C	0.53125	0.437667	0.735106
0	C	0.974287	0.080525	0.734639
0	C	0.58108	0.0454681	0.22483
0	C	0.930911	0.481234	0.231179
0	H	0.472368	0.575666	0.127023
0	H	0.0383917	0.95273	0.130634
0	H	0.433005	0.970537	0.635935
0	H	0.0698046	0.548993	0.632981
0	H	0.535832	0.448201	0.856087
0	H	0.969402	0.0728492	0.857005
0	H	0.575698	0.0546106	0.346442
0	H	0.938873	0.474831	0.352829
0	H	0.44388	0.616719	0.28538
0	H	0.0672153	0.914734	0.293655
0	H	0.397846	0.946243	0.808358
0	H	0.107125	0.575538	0.79945
0	H	0.563789	0.406251	0.698688
0	H	0.941062	0.109958	0.691933
0	H	0.60957	0.0771446	0.170582
0	H	0.901075	0.448618	0.186895
0	H	0.476278	0.546326	0.318197
0	H	0.0334597	0.98478	0.319177
0	H	0.467817	0.979316	0.819094
0	H	0.0374224	0.542419	0.819861
0	H	0.531994	0.476812	0.664156
0	H	0.974808	0.0397825	0.669761
0	H	0.539883	0.0434044	0.16551
0	H	0.970719	0.48175	0.165333
0	C	0.582344	0.6484	0.562705
0	C	0.924927	0.881737	0.572175
0	C	0.368276	0.091835	0.0726212
0	C	0.136671	0.430578	0.0726652
0	C	0.423201	0.376481	0.419217
0	C	0.0840764	0.143225	0.415332
0	C	0.641066	0.931894	0.91386
0	C	0.871999	0.593467	0.914752
0	H	0.553891	0.669086	0.479693
0	H	0.948541	0.857896	0.48449
0	H	0.343046	0.0747479	0.977657
0	H	0.161766	0.448347	0.978301
0	H	0.44758	0.353398	0.506835
0	H	0.061277	0.167421	0.503863
0	H	0.666052	0.949063	0.00915776
0	H	0.846915	0.575417	0.00875631
0	H	0.626268	0.66519	0.555646
0	H	0.879685	0.868689	0.577202
0	H	0.359268	0.13812	0.0935844
0	H	0.146365	0.384407	0.093076
0	H	0.378228	0.362507	0.415626
0	H	0.129504	0.15553	0.408719
0	H	0.649991	0.885571	0.893548
0	H	0.862086	0.639619	0.894827
0	H	0.565268	0.651993	0.677859
0	H	0.94592	0.877837	0.682598
0	H	0.362302	0.0654131	0.174752
0	H	0.142031	0.456961	0.175148
0	H	0.443774	0.372608	0.308183
0	H	0.0625915	0.147528	0.305693
0	H	0.647417	0.958069	0.811522
0	H	0.866881	0.567241	0.81194
0	C	0.777958	0.50293	0.188123
0	C	0.731423	0.0222258	0.18983
0	C	0.513286	0.282514	0.691826
0	C	0.994802	0.237029	0.693052
0	C	0.23014	0.521224	0.797688
0	C	0.27668	0.00208923	0.796895
0	C	0.494239	0.741307	0.289898
0	C	0.0126688	0.787159	0.29653
0	H	0.767675	0.518995	0.074328
0	H	0.741956	0.00603528	0.0763003
0	H	0.498594	0.27226	0.576811
0	H	0.00952589	0.246918	0.577874
0	H	0.240398	0.505308	0.911644
0	H	0.266279	0.0184431	0.910357
0	H	0.509123	0.751215	0.404956
0	H	0.998056	0.777092	0.41171
0	H	0.805289	0.464179	0.184272
0	H	0.703422	0.0604513	0.185063
0	H	0.551192	0.310642	0.690884
0	H	0.957216	0.208482	0.692554
0	H	0.202579	0.55981	0.801075
0	H	0.304557	0.963766	0.801844
0	H	0.456085	0.713523	0.290724
0	H	0.0499922	0.816066	0.296999
0	H	0.797793	0.536888	0.258334
0	H	0.712043	0.988236	0.260768
0	H	0.479019	0.302121	0.760276
0	H	0.0290882	0.217985	0.762388
0	H	0.210574	0.48708	0.727591
0	H	0.296109	0.035921	0.725549
0	H	0.528286	0.721504	0.221069
0	H	0.97822	0.805888	0.227176
0	C	0.675864	0.457152	0.951837
0	C	0.832824	0.0683041	0.952154
0	C	0.557082	0.177983	0.455056
0	C	0.95036	0.339796	0.454417
0	C	0.332244	0.567206	0.0335619
0	C	0.175617	0.956473	0.0357085
0	C	0.451205	0.844895	0.528835
0	C	0.0578826	0.684051	0.534043
0	H	0.69882	0.455382	0.84286
0	H	0.810269	0.069259	0.842502
0	H	0.559026	0.201131	0.345943
0	H	0.948981	0.316239	0.345741
0	H	0.309234	0.568967	0.14243
0	H	0.198537	0.955691	0.144841
0	H	0.449422	0.821504	0.637627
0	H	0.0593192	0.707371	0.643032
0	H	0.631392	0.442228	0.941843
0	H	0.877144	0.0838927	0.943009
0	H	0.570975	0.132413	0.44536
0	H	0.93535	0.384881	0.443869
0	H	0.376657	0.58231	0.0435503
0	H	0.131336	0.940886	0.0460552
0	H	0.437127	0.890372	0.539252
0	H	0.0730069	0.638977	0.543866
0	H	0.698786	0.432978	0.0402125
0	H	0.809101	0.0925159	0.0389661
0	H	0.581524	0.20088	0.542853
0	H	0.926581	0.3165	0.542785
0	H	0.309263	0.591236	0.945013
0	H	0.199052	0.932139	0.948594
0	H	0.426774	0.822103	0.440849
0	H	0.0815135	0.707589	0.445813
