#******************************************
#
# CIF file created by Zeo++
# Zeo++ is an open source package to
# analyze microporous materials
#
#*******************************************

_cell_length_a		34.4939(0)
_cell_length_b		10.0782(0)
_cell_length_c		13.7576(0)
_cell_angle_alpha		90(0)
_cell_angle_beta		90(0)
_cell_angle_gamma		90(0)

_symmetry_space_group_name_H-M		'P1'
_symmetry_Int_Tables_number		1
_symmetry_cell_setting		Monoclinic

loop_
_symmetry_equiv_pos_as_xyz
'+x,+y,+z'

loop_
_atom_site_label
_atom_site_type_symbol
_atom_site_fract_x
_atom_site_fract_y
_atom_site_fract_z
0	C	0.231731	0.0838646	0.345614
0	C	0.769403	0.996928	0.345666
0	C	0.267745	0.584925	0.695651
0	C	0.73259	0.496633	0.695724
0	C	0.212834	0.0710825	0.243314
0	C	0.788353	0.0102732	0.243444
0	C	0.286571	0.570723	0.798032
0	C	0.714211	0.51119	0.798577
0	C	0.220448	0.19663	0.182963
0	C	0.780711	0.884814	0.18304
0	C	0.279465	0.696309	0.858777
0	C	0.721581	0.386003	0.859722
0	H	0.205628	0.184749	0.111611
0	H	0.795669	0.89649	0.111872
0	H	0.294379	0.683435	0.929916
0	H	0.706949	0.399683	0.93121
0	H	0.206896	0.283867	0.218829
0	H	0.794117	0.797459	0.219144
0	H	0.293195	0.78329	0.823014
0	H	0.707675	0.298952	0.824555
0	C	0.263289	0.226446	0.164524
0	C	0.737866	0.85529	0.164347
0	C	0.236722	0.72732	0.877841
0	C	0.764369	0.354701	0.878175
0	H	0.281085	0.222061	0.232164
0	H	0.72003	0.859683	0.231929
0	H	0.218853	0.724106	0.810293
0	H	0.782107	0.357955	0.810417
0	C	0.269537	0.357855	0.110759
0	C	0.731673	0.723874	0.110569
0	C	0.230746	0.858275	0.932375
0	C	0.770534	0.223531	0.932368
0	H	0.250985	0.363623	0.045129
0	H	0.750222	0.718245	0.0449223
0	H	0.249392	0.863113	0.997864
0	H	0.751938	0.217918	0.997899
0	H	0.260706	0.443064	0.157705
0	H	0.740552	0.638688	0.157473
0	H	0.239633	0.943751	0.885753
0	H	0.761736	0.138105	0.88556
0	C	0.312272	0.372134	0.0827041
0	C	0.688951	0.70934	0.082528
0	C	0.188065	0.873125	0.96087
0	C	0.81326	0.208995	0.960616
0	H	0.317215	0.464494	0.0413269
0	H	0.684068	0.616958	0.0411501
0	H	0.183398	0.964948	0.00309929
0	H	0.818074	0.11705	0.00260198
0	H	0.330865	0.378385	0.148693
0	H	0.670354	0.702972	0.148505
0	H	0.169411	0.88094	0.895101
0	H	0.831868	0.201638	0.894732
0	C	0.324781	0.252132	0.0218575
0	C	0.676368	0.82924	0.0216854
0	C	0.175293	0.752606	0.0208326
0	C	0.825986	0.32938	0.0207703
0	H	0.308637	0.247465	0.951419
0	H	0.692432	0.833931	0.951129
0	H	0.191414	0.746667	0.0912838
0	H	0.809844	0.335087	0.0912143
0	C	0.317237	0.120559	0.0786621
0	C	0.683895	0.960897	0.0784368
0	C	0.182594	0.621585	0.963249
0	C	0.81863	0.46045	0.963295
0	C	0.325407	0.996338	0.02262
0	C	0.675641	0.0850284	0.0223707
0	C	0.174321	0.496874	0.0186959
0	C	0.827035	0.585016	0.0188192
0	H	0.310566	0.99004	0.952811
0	H	0.690428	0.0913863	0.952484
0	H	0.188919	0.490309	0.088804
0	H	0.81255	0.591449	0.0890805
0	C	0.349973	0.903921	0.056127
0	C	0.651036	0.177347	0.0558607
0	C	0.149937	0.404473	0.984373
0	C	0.851429	0.67738	0.984468
0	C	0.368158	0.916896	0.155222
0	C	0.632884	0.164508	0.155002
0	C	0.132114	0.417689	0.884899
0	C	0.869222	0.664146	0.884961
0	H	0.372162	0.818868	0.189939
0	H	0.628985	0.262585	0.189743
0	H	0.128595	0.319777	0.849651
0	H	0.872839	0.762087	0.849824
0	H	0.397672	0.959718	0.14635
0	H	0.603322	0.122059	0.146253
0	H	0.102418	0.45921	0.893204
0	H	0.898881	0.622281	0.89316
0	C	0.343577	0.0077332	0.220362
0	C	0.657438	0.0735092	0.220115
0	C	0.156626	0.51003	0.820684
0	C	0.844571	0.572263	0.82075
0	H	0.314731	0.963144	0.23622
0	H	0.686268	0.118148	0.236101
0	H	0.185597	0.466285	0.804836
0	H	0.815654	0.616552	0.805135
0	C	0.364557	0.052781	0.314073
0	C	0.636441	0.0281952	0.313738
0	C	0.135697	0.555596	0.727059
0	C	0.865363	0.526549	0.726972
0	H	0.393574	0.0934218	0.293131
0	H	0.60747	0.987265	0.292704
0	H	0.106575	0.595359	0.748019
0	H	0.894491	0.486673	0.747751
0	C	0.340836	0.158391	0.363984
0	C	0.660225	0.922783	0.36371
0	C	0.159228	0.662239	0.677788
0	C	0.841727	0.420019	0.677852
0	H	0.311961	0.125856	0.386783
0	H	0.68898	0.955817	0.387088
0	H	0.188489	0.631556	0.65679
0	H	0.812493	0.451053	0.656886
0	C	0.353569	0.281585	0.380027
0	C	0.647681	0.799227	0.379133
0	C	0.14586	0.784246	0.660155
0	C	0.854976	0.297853	0.660222
0	H	0.381552	0.31695	0.354257
0	H	0.619833	0.763415	0.352767
0	H	0.117418	0.817685	0.684045
0	H	0.883394	0.264159	0.684131
0	C	0.328726	0.38184	0.430516
0	C	0.672537	0.699058	0.429675
0	C	0.170524	0.885596	0.610345
0	C	0.83031	0.196709	0.610174
0	H	0.303419	0.336583	0.468439
0	H	0.697909	0.744265	0.467355
0	H	0.195601	0.841005	0.571042
0	H	0.805301	0.24153	0.57074
0	C	0.350326	0.479575	0.49806
0	C	0.650947	0.60167	0.497517
0	C	0.148804	0.98549	0.54482
0	C	0.852117	0.0969661	0.544696
0	H	0.346801	0.451343	0.575009
0	H	0.654803	0.629623	0.574424
0	H	0.151241	0.957866	0.467505
0	H	0.849855	0.124936	0.467419
0	H	0.381809	0.480542	0.483672
0	H	0.619417	0.601582	0.483803
0	H	0.117498	0.988779	0.561547
0	H	0.883381	0.0934519	0.561844
0	C	0.332205	0.615733	0.476816
0	C	0.668686	0.46505	0.47578
0	C	0.168056	0.11989	0.565614
0	C	0.832782	0.96257	0.564917
0	H	0.354279	0.689363	0.455748
0	H	0.646409	0.392291	0.454454
0	H	0.146625	0.195749	0.586674
0	H	0.854128	0.88624	0.585558
0	H	0.316831	0.656684	0.541395
0	H	0.683944	0.423172	0.54024
0	H	0.183635	0.159266	0.500809
0	H	0.817161	0.923972	0.499929
0	C	0.303039	0.591483	0.394311
0	C	0.697924	0.488987	0.393412
0	C	0.197202	0.0931221	0.647781
0	C	0.803635	0.988876	0.647133
0	C	0.300008	0.694215	0.312957
0	C	0.70101	0.386558	0.311877
0	C	0.200732	0.194972	0.729579
0	C	0.800096	0.886881	0.728833
0	H	0.327181	0.69459	0.27013
0	H	0.673863	0.386347	0.268941
0	H	0.173639	0.195876	0.772747
0	H	0.827237	0.885322	0.771778
0	H	0.297102	0.794494	0.346836
0	H	0.703902	0.286142	0.345521
0	H	0.203862	0.295503	0.696239
0	H	0.79673	0.786498	0.695382
0	C	0.265417	0.670419	0.245159
0	C	0.735653	0.410787	0.244275
0	C	0.23538	0.169399	0.796817
0	C	0.765558	0.912999	0.796345
0	H	0.261077	0.756944	0.196419
0	H	0.739993	0.324595	0.195237
0	H	0.240172	0.255729	0.845532
0	H	0.760871	0.827173	0.845568
0	H	0.270735	0.583044	0.196993
0	H	0.730366	0.498526	0.196444
0	H	0.229832	0.082202	0.844985
0	H	0.771216	0.000560929	0.844105
0	C	0.228961	0.646995	0.306059
0	C	0.772083	0.433772	0.305408
0	C	0.271588	0.144429	0.73541
0	C	0.729259	0.937541	0.735153
0	H	0.219254	0.739704	0.342589
0	H	0.781758	0.340745	0.341545
0	H	0.281594	0.236777	0.698916
0	H	0.719159	0.844935	0.699166
0	C	0.236089	0.533105	0.378493
0	C	0.764879	0.547175	0.378179
0	C	0.263997	0.0314244	0.662593
0	C	0.736833	0.050228	0.662055
0	H	0.246093	0.440412	0.34136
0	H	0.754894	0.640005	0.34117
0	H	0.253851	0.938565	0.69918
0	H	0.747066	0.142973	0.698779
0	C	0.199498	0.506959	0.438866
0	C	0.801354	0.573347	0.438957
0	C	0.300471	0.00571051	0.601625
0	C	0.700362	0.0758407	0.601078
0	H	0.191219	0.593448	0.485303
0	H	0.809644	0.486732	0.48525
0	H	0.308634	0.0928692	0.555767
0	H	0.692182	0.988897	0.555
0	C	0.167227	0.470869	0.368786
0	C	0.833663	0.610133	0.369171
0	C	0.333021	0.968882	0.670737
0	C	0.66787	0.113249	0.670191
0	C	0.163381	0.556765	0.279231
0	C	0.837664	0.524722	0.279407
0	C	0.337059	0.0527448	0.761262
0	C	0.663828	0.0297451	0.760869
0	H	0.152029	0.499182	0.215639
0	H	0.849045	0.582752	0.216054
0	H	0.348312	0.993443	0.824079
0	H	0.652558	0.089291	0.823513
0	C	0.137318	0.679096	0.30074
0	C	0.863788	0.402493	0.300759
0	C	0.363262	0.175326	0.741407
0	C	0.637665	0.906951	0.741435
0	H	0.143214	0.720147	0.374392
0	H	0.857925	0.361279	0.374383
0	H	0.357587	0.217506	0.667983
0	H	0.643337	0.864312	0.668149
0	C	0.0943874	0.648081	0.2852
0	C	0.906709	0.433722	0.285226
0	C	0.406175	0.144522	0.757616
0	C	0.594741	0.937487	0.757708
0	H	0.0871485	0.547931	0.31415
0	H	0.91393	0.533859	0.314224
0	H	0.41352	0.0440828	0.729335
0	H	0.587327	0.0378642	0.729443
0	H	0.0885813	0.643066	0.205839
0	H	0.91251	0.438839	0.205866
0	H	0.411816	0.140376	0.837082
0	H	0.589104	0.941569	0.837187
0	C	0.0682524	0.753317	0.333019
0	C	0.932858	0.328479	0.332987
0	C	0.432395	0.249397	0.709555
0	C	0.568587	0.832385	0.709691
0	H	0.0789989	0.854208	0.312082
0	H	0.922123	0.227597	0.311987
0	H	0.42164	0.350476	0.729918
0	H	0.579355	0.731379	0.730216
0	C	0.0261059	0.738665	0.296111
0	C	0.975008	0.343195	0.296121
0	C	0.474519	0.235223	0.746646
0	C	0.526449	0.846502	0.746655
0	H	0.0132399	0.642842	0.320585
0	H	0.987879	0.438963	0.3207
0	H	0.48755	0.139803	0.721753
0	H	0.513397	0.941842	0.721671
0	C	0.0203079	0.754605	0.185211
0	C	0.980835	0.327415	0.185219
0	C	0.480321	0.250636	0.857559
0	C	0.520655	0.831207	0.85758
0	H	0.0331465	0.664912	0.149295
0	H	0.967994	0.417124	0.149334
0	H	0.467053	0.161758	0.893542
0	H	0.53393	0.920114	0.893511
0	C	0.976378	0.754868	0.163777
0	C	0.0247723	0.32722	0.163862
0	C	0.524273	0.248433	0.878664
0	C	0.476703	0.833433	0.878658
0	H	0.971403	0.771939	0.085329
0	H	0.02977	0.310278	0.0854092
0	H	0.52945	0.263284	0.957246
0	H	0.471518	0.81877	0.957251
0	H	0.96422	0.655484	0.18024
0	H	0.0369248	0.426577	0.180449
0	H	0.536024	0.148886	0.860776
0	H	0.464943	0.93292	0.860628
0	C	0.954606	0.859342	0.223193
0	C	0.0465254	0.222642	0.223227
0	C	0.546281	0.353392	0.82016
0	C	0.454725	0.7283	0.820261
0	H	0.922973	0.847957	0.213341
0	H	0.0781612	0.234028	0.213435
0	H	0.577893	0.340124	0.82935
0	H	0.42311	0.741449	0.829454
0	H	0.962149	0.960986	0.196606
0	H	0.0389877	0.121038	0.196556
0	H	0.539231	0.454645	0.847958
0	H	0.461815	0.627111	0.848127
0	C	0.964764	0.851736	0.331583
0	C	0.0363337	0.230091	0.331608
0	C	0.535855	0.348107	0.71178
0	C	0.465144	0.733452	0.71187
0	C	0.951126	0.971682	0.391071
0	C	0.0499806	0.110096	0.391027
0	C	0.549798	0.468364	0.653043
0	C	0.451227	0.613112	0.653199
0	H	0.920627	0.994081	0.372543
0	H	0.0804749	0.0877013	0.372452
0	H	0.580421	0.489065	0.671413
0	H	0.420591	0.592465	0.671459
0	H	0.968259	0.0613898	0.369677
0	H	0.0328438	0.0204076	0.369614
0	H	0.533058	0.558553	0.67514
0	H	0.467943	0.522921	0.675408
0	C	0.95534	0.947637	0.500415
0	C	0.0457872	0.134021	0.500392
0	C	0.54537	0.445886	0.543526
0	C	0.455727	0.635495	0.543687
0	H	0.942113	0.0306985	0.541293
0	H	0.0590296	0.0509122	0.541197
0	H	0.558835	0.528888	0.503137
0	H	0.442354	0.552342	0.503283
0	H	0.986581	0.94686	0.519721
0	H	0.0145487	0.134734	0.51973
0	H	0.514099	0.446691	0.524518
0	H	0.487015	0.634929	0.524833
0	C	0.936644	0.815621	0.529793
0	C	0.0644735	0.266031	0.529836
0	C	0.563501	0.31347	0.512871
0	C	0.437524	0.76774	0.512906
0	H	0.90475	0.822231	0.52023
0	H	0.0963697	0.259512	0.520193
0	H	0.595427	0.31841	0.521994
0	H	0.405599	0.7626	0.521986
0	H	0.941849	0.795344	0.60769
0	H	0.0592886	0.286182	0.607758
0	H	0.558068	0.294412	0.43491
0	H	0.442974	0.786741	0.434943
0	C	0.952936	0.702816	0.467715
0	C	0.0481369	0.378866	0.467863
0	C	0.546888	0.20073	0.574407
0	C	0.454053	0.880679	0.574406
0	H	0.984284	0.688232	0.48045
0	H	0.0167883	0.39334	0.480649
0	H	0.515444	0.187902	0.562128
0	H	0.485485	0.893823	0.562115
0	H	0.937232	0.607424	0.476847
0	H	0.0638239	0.474295	0.477034
0	H	0.562163	0.104561	0.564365
0	H	0.438692	0.976676	0.564319
0	C	0.169579	0.048565	0.259582
0	C	0.831609	0.0330345	0.259519
0	C	0.329674	0.545545	0.781224
0	C	0.671018	0.536592	0.783505
0	H	0.155057	0.0246149	0.190479
0	H	0.845989	0.0574249	0.190284
0	H	0.344369	0.522665	0.850261
0	H	0.656754	0.560897	0.852921
0	H	0.155309	0.134921	0.29197
0	H	0.846011	0.94672	0.291552
0	H	0.344225	0.63008	0.747106
0	H	0.656153	0.451669	0.750775
0	H	0.164019	0.962278	0.306749
0	H	0.837181	0.119136	0.306864
0	H	0.33459	0.457431	0.735356
0	H	0.665768	0.624013	0.737138
0	C	0.361974	0.7848	0.99913
0	C	0.639025	0.296324	0.99869
0	C	0.137851	0.284931	0.0407859
0	C	0.863501	0.79708	0.0407299
0	H	0.351035	0.692727	0.0323825
0	H	0.650064	0.388458	0.0316576
0	H	0.149481	0.193349	0.00830912
0	H	0.851774	0.888439	0.00813061
0	H	0.393738	0.775819	0.996048
0	H	0.607267	0.305553	0.995743
0	H	0.106108	0.274438	0.0419715
0	H	0.895235	0.807899	0.0417461
0	H	0.351521	0.78699	0.923752
0	H	0.649416	0.293716	0.923257
0	H	0.147557	0.287815	0.116773
0	H	0.853851	0.794379	0.116753
0	C	0.369707	0.936196	0.384099
0	C	0.631141	0.144663	0.383802
0	C	0.130817	0.439632	0.656325
0	C	0.87018	0.642509	0.656199
0	H	0.385813	0.967429	0.448963
0	H	0.614959	0.113251	0.448497
0	H	0.114779	0.471278	0.591456
0	H	0.886239	0.610919	0.591352
0	H	0.3854	0.85397	0.350298
0	H	0.615453	0.226846	0.349932
0	H	0.115157	0.356876	0.689545
0	H	0.885771	0.72544	0.6894
0	H	0.341478	0.89856	0.410173
0	H	0.659316	0.182415	0.41015
0	H	0.159103	0.402529	0.630259
0	H	0.841859	0.679312	0.630127
0	C	0.142475	0.372321	0.385954
0	C	0.858273	0.708964	0.386791
0	C	0.357918	0.871293	0.651923
0	C	0.64314	0.211196	0.651006
0	H	0.144181	0.310731	0.450585
0	H	0.85634	0.770286	0.451525
0	H	0.356003	0.810706	0.586827
0	H	0.645262	0.271147	0.585577
0	H	0.118153	0.346488	0.339447
0	H	0.882635	0.735478	0.340625
0	H	0.382519	0.84534	0.69746
0	H	0.618532	0.23801	0.696211
0	C	0.0693472	0.741525	0.444125
0	C	0.931754	0.340159	0.444102
0	C	0.431469	0.236512	0.598505
0	C	0.569583	0.845002	0.598633
0	H	0.0474753	0.806948	0.477082
0	H	0.953528	0.274345	0.477046
0	H	0.453295	0.301878	0.565359
0	H	0.547792	0.779523	0.565482
0	H	0.0976725	0.770092	0.473445
0	H	0.903383	0.312003	0.473351
0	H	0.40313	0.263972	0.568758
0	H	0.597947	0.8175	0.569054
0	H	0.0633673	0.639586	0.468559
0	H	0.937865	0.441968	0.468622
0	H	0.43766	0.134282	0.574746
0	H	0.563395	0.94717	0.574722
0	C	0.0404093	0.876839	0.143084
0	C	0.96077	0.20519	0.142981
0	C	0.460857	0.374342	0.899339
0	C	0.540119	0.707533	0.899423
0	H	0.0325369	0.967894	0.182989
0	H	0.968626	0.114106	0.182872
0	H	0.468763	0.464404	0.858445
0	H	0.532267	0.617447	0.858504
0	H	0.0327715	0.89168	0.0665388
0	H	0.968454	0.190418	0.066456
0	H	0.468994	0.389989	0.975469
0	H	0.531941	0.691853	0.975519
0	H	0.0721346	0.867129	0.145917
0	H	0.929042	0.214856	0.145695
0	H	0.4291	0.36562	0.897651
0	H	0.571877	0.716345	0.897859
0	O	0.227439	0.177943	0.400217
0	O	0.773704	0.902525	0.399976
0	O	0.272477	0.678732	0.641029
0	O	0.727947	0.402716	0.641179
0	O	0.251699	0.97542	0.372023
0	O	0.74927	0.105022	0.371889
0	O	0.247289	0.477486	0.669296
0	O	0.752623	0.604619	0.66823
0	H	0.261049	0.974593	0.444425
0	H	0.739867	0.106194	0.444208
0	H	0.238306	0.475727	0.596644
0	H	0.761509	0.603644	0.595424
0	O	0.22743	0.955113	0.197623
0	O	0.773759	0.126336	0.197829
0	O	0.271568	0.455149	0.84347
0	O	0.729658	0.626794	0.843062
0	H	0.250102	0.979822	0.153467
0	H	0.751196	0.101621	0.153351
0	H	0.248924	0.480522	0.887543
0	H	0.752518	0.601236	0.886354
0	O	0.276021	0.116542	0.102207
0	O	0.725115	0.965146	0.102011
0	O	0.223816	0.617198	0.939697
0	O	0.777383	0.464796	0.93998
0	O	0.365414	0.264001	0.00318223
0	O	0.635719	0.817057	0.00333054
0	O	0.134674	0.764935	0.0396387
0	O	0.866604	0.317173	0.0396517
0	H	0.36978	0.257307	0.931109
0	H	0.631199	0.824824	0.931386
0	H	0.130458	0.760935	0.111902
0	H	0.870787	0.320902	0.111949
0	O	0.337136	0.131629	0.168836
0	O	0.66395	0.949712	0.168532
0	O	0.162727	0.633489	0.8731
0	O	0.83836	0.448704	0.872935
0	O	0.312064	0.464648	0.353109
0	O	0.689061	0.615962	0.352255
0	O	0.18764	0.9664	0.688322
0	O	0.813064	0.115669	0.68781
0	O	0.266033	0.575916	0.444162
0	O	0.734892	0.504012	0.443564
0	O	0.234058	0.0758283	0.597496
0	O	0.76675	0.00580248	0.596916
0	O	0.199136	0.605241	0.237915
0	O	0.80199	0.476138	0.237652
0	O	0.301367	0.100976	0.803147
0	O	0.699538	0.981694	0.80285
0	O	0.2067	0.405597	0.509562
0	O	0.793895	0.674223	0.509833
0	O	0.293133	0.90542	0.530238
0	O	0.7077	0.176008	0.529529
0	H	0.218817	0.324699	0.477525
0	H	0.78204	0.755515	0.477731
0	H	0.281097	0.824021	0.561848
0	H	0.719758	0.25722	0.561033
0	O	0.146823	0.782891	0.232777
0	O	0.854319	0.298757	0.232723
0	O	0.353495	0.278211	0.809923
0	O	0.647478	0.804435	0.810214
0	H	0.17566	0.782838	0.218364
0	H	0.825499	0.299094	0.218002
0	H	0.324719	0.276503	0.824862
0	H	0.676227	0.80655	0.825414
0	O	0.0056538	0.843703	0.347969
0	O	0.995439	0.238027	0.347902
0	O	0.494922	0.341347	0.695678
0	O	0.506075	0.740274	0.695753
0	O	0.947453	0.72959	0.365243
0	O	0.0536063	0.352252	0.365367
0	O	0.552825	0.225952	0.676914
0	O	0.44814	0.855515	0.676925
