#******************************************
#
# CIF file created by Zeo++
# Zeo++ is an open source package to
# analyze microporous materials
#
#*******************************************

_cell_length_a		10.1676(0)
_cell_length_b		11.1813(0)
_cell_length_c		11.5145(0)
_cell_angle_alpha		77.7944(0)
_cell_angle_beta		76.1469(0)
_cell_angle_gamma		75.1527(0)

_symmetry_space_group_name_H-M		'P1'
_symmetry_Int_Tables_number		1
_symmetry_cell_setting		Triclinic

loop_
_symmetry_equiv_pos_as_xyz
'+x,+y,+z'

loop_
_atom_site_label
_atom_site_type_symbol
_atom_site_fract_x
_atom_site_fract_y
_atom_site_fract_z
0	C	0.276223	0.292802	0.367184
0	C	0.660353	0.741805	0.646972
0	C	0.382159	0.349002	0.302494
0	C	0.554374	0.685618	0.711597
0	C	0.519341	0.273132	0.334867
0	C	0.417232	0.761517	0.679137
0	H	0.594626	0.239855	0.254265
0	H	0.341947	0.794895	0.759674
0	H	0.574173	0.327298	0.372356
0	H	0.362359	0.707299	0.641729
0	N	0.477246	0.167314	0.426255
0	N	0.459434	0.867172	0.587589
0	H	0.549894	0.0906878	0.456302
0	H	0.386861	0.943624	0.557158
0	C	0.335398	0.173963	0.441889
0	C	0.601298	0.860441	0.571918
0	O	0.277545	0.092469	0.507253
0	O	0.659201	0.941687	0.506133
0	C	0.127563	0.338223	0.369899
0	C	0.809017	0.696421	0.644314
0	C	0.042239	0.254956	0.377313
0	C	0.894345	0.779671	0.636986
0	H	0.0887954	0.154863	0.383172
0	H	0.847808	0.879753	0.631212
0	C	0.900492	0.301337	0.377659
0	C	0.0360474	0.733236	0.636706
0	C	0.84164	0.4312	0.368606
0	C	0.0949309	0.603374	0.645562
0	C	0.930233	0.51388	0.358657
0	C	0.00632767	0.520724	0.655557
0	C	0.0707939	0.467304	0.362898
0	C	0.865792	0.567355	0.651285
0	H	0.137699	0.530907	0.357944
0	H	0.798869	0.503817	0.656173
0	O	0.866369	0.638285	0.345778
0	O	0.0700364	0.396276	0.668608
0	C	0.948639	0.729429	0.339008
0	C	0.987636	0.305233	0.67547
0	H	0.00210165	0.706383	0.415478
0	H	0.934683	0.327994	0.598693
0	H	0.867327	0.815453	0.346603
0	H	0.0688149	0.21905	0.668508
0	H	0.0207403	0.735022	0.251644
0	H	0.915059	0.300093	0.762597
0	O	0.702177	0.472175	0.362147
0	O	0.234442	0.56237	0.651859
0	C	0.623184	0.548894	0.453916
0	C	0.313202	0.485496	0.560163
0	H	0.615251	0.490511	0.54328
0	H	0.32127	0.543828	0.470768
0	H	0.522699	0.583937	0.426035
0	H	0.413668	0.450249	0.588076
0	H	0.671453	0.627214	0.451208
0	H	0.264826	0.407317	0.562883
0	O	0.807396	0.228738	0.384678
0	O	0.129159	0.8059	0.629443
0	C	0.863471	0.0958486	0.38323
0	C	0.0730715	0.938824	0.630721
0	H	0.933796	0.0813415	0.296892
0	H	0.00208308	0.953965	0.716596
0	H	0.769214	0.0603775	0.392613
0	H	0.167256	0.974252	0.6218
0	H	0.9143	0.0527478	0.460862
0	H	0.0229845	0.981427	0.552568
0	C	0.376691	0.46067	0.214263
0	C	0.559666	0.573851	0.79972
0	C	0.454334	0.551692	0.198811
0	C	0.4818	0.483027	0.81506
0	H	0.536814	0.549577	0.244692
0	H	0.399254	0.485383	0.769161
0	N	0.413414	0.650575	0.109217
0	N	0.522636	0.383887	0.904485
0	C	0.310921	0.621201	0.0619605
0	C	0.625092	0.413043	0.951934
0	C	0.242255	0.687134	0.967293
0	C	0.693547	0.34684	0.0466221
0	H	0.257755	0.780078	0.923189
0	H	0.677869	0.253885	0.0904567
0	C	0.157346	0.628288	0.931911
0	C	0.778393	0.405546	0.0822638
0	H	0.105538	0.674281	0.856187
0	H	0.83003	0.359424	0.15805
0	C	0.138041	0.507357	0.99058
0	C	0.797949	0.526443	0.0237651
0	H	0.073007	0.463761	0.957025
0	H	0.86291	0.569866	0.0576012
0	C	0.19962	0.444715	0.0879345
0	C	0.736672	0.589274	0.926291
0	H	0.180742	0.35363	0.135185
0	H	0.75577	0.680302	0.879151
0	C	0.287849	0.501204	0.125456
0	C	0.648409	0.533012	0.888588
0	C	0.472043	0.764217	0.0648207
0	C	0.46282	0.270943	0.949233
0	H	0.564374	0.755168	0.103993
0	H	0.370579	0.280476	0.909782
0	H	0.497741	0.779212	0.963652
0	H	0.436618	0.256483	0.0503998
0	O	0.367393	0.871274	0.0905434
0	O	0.566566	0.163119	0.924218
0	C	0.351859	0.920336	0.203615
0	C	0.58246	0.11405	0.811063
0	C	0.331662	0.818823	0.313768
0	C	0.603742	0.215347	0.700893
0	H	0.255951	0.767353	0.307181
0	H	0.679737	0.266352	0.70782
0	H	0.293005	0.859376	0.397969
0	H	0.642592	0.174737	0.616721
0	H	0.427861	0.750233	0.325418
0	H	0.507915	0.284336	0.68881
0	C	0.219358	0.0220788	0.197384
0	C	0.714407	0.0117664	0.818208
0	H	0.233493	0.0941014	0.117304
0	H	0.699202	0.939725	0.898106
0	H	0.187899	0.0687177	0.278068
0	H	0.746729	0.96521	0.73748
0	H	0.134129	0.981838	0.190897
0	H	0.799454	0.0516434	0.825776
0	C	0.478367	0.974034	0.19402
0	C	0.455676	0.0609932	0.819877
0	H	0.569716	0.901685	0.212355
0	H	0.364587	0.133655	0.801451
0	H	0.457879	0.0385714	0.259058
0	H	0.47613	0.996924	0.754454
0	H	0.50747	0.0264835	0.102608
0	H	0.426009	0.00833673	0.91104
