#******************************************
#
# CIF file created by Zeo++
# Zeo++ is an open source package to
# analyze microporous materials
#
#*******************************************

_cell_length_a		12.6996(0)
_cell_length_b		12.8209(0)
_cell_length_c		10.1585(0)
_cell_angle_alpha		90(0)
_cell_angle_beta		90(0)
_cell_angle_gamma		116.6(0)

_symmetry_space_group_name_H-M		'P1'
_symmetry_Int_Tables_number		1
_symmetry_cell_setting		Monoclinic

loop_
_symmetry_equiv_pos_as_xyz
'+x,+y,+z'

loop_
_atom_site_label
_atom_site_type_symbol
_atom_site_fract_x
_atom_site_fract_y
_atom_site_fract_z
0	O	0.578973	0.301611	0.89737
0	O	0.696906	0.279794	0.211328
0	O	0.694249	0.401407	0.556478
0	O	0.38607	0.692788	0.376899
0	O	0.268887	0.693521	0.71655
0	O	0.252631	0.561207	0.0343183
0	O	0.475205	0.900981	0.820583
0	O	0.0808189	0.6022	0.174409
0	O	0.362017	0.483423	0.51241
0	O	0.462092	0.0855007	0.319045
0	O	0.886092	0.368424	0.680035
0	O	0.595927	0.513664	0.00227421
0	O	0.568347	0.0103723	0.648342
0	O	0.962873	0.565042	0.00110865
0	O	0.411093	0.415104	0.335351
0	O	0.383751	0.970662	0.146467
0	O	0.999617	0.405249	0.502914
0	O	0.555931	0.594781	0.829361
0	N	0.506871	0.318034	0.169951
0	N	0.707669	0.219432	0.515881
0	N	0.760008	0.481324	0.850751
0	N	0.465185	0.713161	0.674853
0	N	0.27662	0.775302	0.999567
0	N	0.200305	0.502489	0.343436
0	H	0.452287	0.332896	0.239552
0	H	0.670967	0.13804	0.5658
0	H	0.838004	0.52955	0.905481
0	H	0.515599	0.685732	0.735612
0	H	0.295905	0.851252	0.0577096
0	H	0.125829	0.452449	0.402617
0	H	0.554363	0.398115	0.120163
0	H	0.636636	0.234682	0.489825
0	H	0.761709	0.403221	0.824504
0	H	0.390081	0.637253	0.649081
0	H	0.356497	0.790893	0.954406
0	H	0.190191	0.574918	0.311948
0	H	0.56479	0.29549	0.223031
0	H	0.763527	0.287918	0.582624
0	H	0.685315	0.462513	0.913637
0	H	0.439136	0.769703	0.730664
0	H	0.246924	0.702158	0.0630686
0	H	0.277835	0.528945	0.404506
0	N	0.53027	0.114454	0.95468
0	N	0.865889	0.420606	0.298087
0	N	0.548714	0.442116	0.633191
0	N	0.418748	0.872038	0.451489
0	N	0.096181	0.553849	0.796362
0	N	0.409614	0.551507	0.130254
0	H	0.487208	0.0455824	0.0211827
0	H	0.927127	0.445411	0.374585
0	H	0.520454	0.481789	0.705649
0	H	0.460802	0.939817	0.519455
0	H	0.0351186	0.527509	0.873492
0	H	0.441472	0.5252	0.211899
0	C	0.436636	0.220664	0.0744084
0	C	0.779185	0.220489	0.395602
0	C	0.749098	0.546144	0.73076
0	C	0.530918	0.777585	0.552837
0	C	0.182101	0.752582	0.896656
0	C	0.210335	0.434211	0.225896
0	H	0.396808	0.135515	0.132196
0	H	0.873228	0.24878	0.429485
0	H	0.712562	0.607922	0.765418
0	H	0.591297	0.871097	0.582322
0	H	0.0934556	0.713656	0.949363
0	H	0.252053	0.377337	0.26181
0	C	0.339924	0.241852	0.010309
0	C	0.727591	0.100505	0.332735
0	C	0.867443	0.613266	0.663687
0	C	0.601515	0.719934	0.494557
0	C	0.203019	0.864651	0.826319
0	C	0.0903147	0.358999	0.166045
0	H	0.278607	0.247019	0.0832066
0	H	0.723956	0.0327679	0.400717
0	H	0.936707	0.668082	0.732587
0	H	0.654575	0.703074	0.569059
0	H	0.205132	0.93176	0.894644
0	H	0.0240469	0.309751	0.240405
0	H	0.288018	0.17081	0.942023
0	H	0.778108	0.0992897	0.245586
0	H	0.862469	0.669735	0.585137
0	H	0.660619	0.773358	0.416383
0	H	0.133936	0.849424	0.753226
0	H	0.0946817	0.296581	0.0952041
0	H	0.375824	0.323659	0.95226
0	H	0.636513	0.0756889	0.297354
0	H	0.896937	0.55272	0.61673
0	H	0.54212	0.635339	0.449067
0	H	0.287963	0.900947	0.772362
0	H	0.0573772	0.41313	0.111177
0	C	0.522702	0.216905	0.969243
0	C	0.775471	0.309788	0.295103
0	C	0.661893	0.455504	0.633937
0	C	0.437917	0.775284	0.452909
0	C	0.187451	0.663876	0.796895
0	C	0.291724	0.522461	0.122562
0	C	0.611881	0.10598	0.855845
0	C	0.866324	0.510805	0.206515
0	C	0.462133	0.359631	0.539565
0	C	0.333772	0.878827	0.356215
0	C	0.100083	0.464451	0.706875
0	C	0.49436	0.635218	0.0361318
0	H	0.642106	0.184098	0.788502
0	H	0.790775	0.467695	0.135583
0	H	0.510232	0.328906	0.467744
0	H	0.30182	0.800128	0.289623
0	H	0.174369	0.509146	0.63417
0	H	0.444492	0.665283	0.966179
0	C	0.722816	0.106075	0.921024
0	C	0.850628	0.609356	0.279537
0	C	0.366052	0.250067	0.608136
0	C	0.224642	0.878166	0.425547
0	C	0.123049	0.371132	0.78245
0	C	0.590791	0.74399	0.106298
0	H	0.693744	0.0484393	0.00987215
0	H	0.911146	0.636998	0.366526
0	H	0.332279	0.278949	0.695487
0	H	0.255336	0.941444	0.50929
0	H	0.0799896	0.357518	0.881219
0	H	0.615583	0.714753	0.20014
0	C	0.786293	0.0596277	0.82686
0	C	0.882284	0.714966	0.189313
0	C	0.264062	0.184218	0.512875
0	C	0.154591	0.914647	0.328799
0	C	0.07075	0.254843	0.708117
0	C	0.701163	0.802899	0.0203072
0	H	0.857364	0.0500483	0.8783
0	H	0.862966	0.781117	0.237066
0	H	0.199413	0.10249	0.55689
0	H	0.0760841	0.912383	0.376308
0	H	0.0978546	0.19289	0.752525
0	H	0.762126	0.888079	0.0606248
0	H	0.827396	0.120357	0.744491
0	H	0.831043	0.69045	0.097155
0	H	0.295047	0.160829	0.421659
0	H	0.124242	0.855222	0.243763
0	H	0.0998548	0.266199	0.605161
0	H	0.679636	0.818005	0.919698
0	H	0.728	0.97448	0.78512
0	H	0.976144	0.756993	0.163322
0	H	0.217555	0.235577	0.486396
0	H	0.20654	0.00306482	0.290883
0	H	0.973708	0.213907	0.708815
0	H	0.74948	0.74996	0.0140344
0	C	0.807505	0.230339	0.963031
0	C	0.723075	0.563394	0.326325
0	C	0.420151	0.17105	0.653893
0	C	0.146689	0.755384	0.477712
0	C	0.255907	0.416886	0.800603
0	C	0.54084	0.829683	0.138184
0	H	0.882239	0.232376	0.0182197
0	H	0.71505	0.62181	0.399605
0	H	0.359428	0.100336	0.716626
0	H	0.072005	0.752415	0.533765
0	H	0.277172	0.357545	0.859848
0	H	0.599955	0.900203	0.202409
0	H	0.763266	0.26791	0.0264633
0	H	0.691702	0.477481	0.373522
0	H	0.500706	0.22044	0.711397
0	H	0.196234	0.724332	0.543214
0	H	0.294435	0.501862	0.85056
0	H	0.456385	0.785918	0.190705
0	H	0.84396	0.288651	0.877621
0	H	0.663016	0.555277	0.244886
0	H	0.443318	0.130549	0.570552
0	H	0.111114	0.692095	0.396756
0	H	0.301086	0.428268	0.705124
0	H	0.527221	0.871239	0.049293
0	C	0.544641	0.996189	0.770324
0	C	0.981253	0.562439	0.123961
0	C	0.407689	0.425802	0.459507
0	C	0.400216	0.988576	0.270043
0	C	0.985098	0.409199	0.626187
0	C	0.551329	0.57364	0.951664
