#******************************************
#
# CIF file created by Zeo++
# Zeo++ is an open source package to
# analyze microporous materials
#
#*******************************************

_cell_length_a		14.4721(0)
_cell_length_b		14.4826(0)
_cell_length_c		14.2199(0)
_cell_angle_alpha		90(0)
_cell_angle_beta		90(0)
_cell_angle_gamma		120.109(0)

_symmetry_space_group_name_H-M		'P1'
_symmetry_Int_Tables_number		1
_symmetry_cell_setting		Monoclinic

loop_
_symmetry_equiv_pos_as_xyz
'+x,+y,+z'

loop_
_atom_site_label
_atom_site_type_symbol
_atom_site_fract_x
_atom_site_fract_y
_atom_site_fract_z
0	Br	0.423702	0.129605	0.685302
0	Br	0.876626	0.294818	0.0170596
0	Br	0.712822	0.579718	0.348571
0	Br	0.580844	0.873674	0.184314
0	Br	0.130922	0.709687	0.516484
0	Br	0.297899	0.430002	0.850012
0	O	0.551103	0.282988	0.547069
0	O	0.720692	0.268215	0.883519
0	O	0.732187	0.448331	0.210988
0	O	0.453975	0.719333	0.0470392
0	O	0.284481	0.736042	0.378498
0	O	0.272395	0.557683	0.714962
0	C	0.449663	0.241126	0.587293
0	C	0.762204	0.208386	0.923283
0	C	0.795804	0.549026	0.25117
0	C	0.555357	0.762477	0.0875665
0	C	0.242823	0.795551	0.418827
0	C	0.209409	0.458426	0.75482
0	N	0.444162	0.332642	0.634651
0	N	0.670055	0.111234	0.969325
0	N	0.891067	0.547024	0.297376
0	N	0.561265	0.670032	0.131225
0	N	0.334712	0.892251	0.466378
0	N	0.113409	0.4529	0.804676
0	O	0.517391	0.422621	0.619299
0	O	0.580653	0.0968524	0.957375
0	O	0.908457	0.47556	0.280341
0	O	0.488178	0.580548	0.114185
0	O	0.424293	0.907818	0.451573
0	O	0.0944006	0.524256	0.789227
0	O	0.367025	0.311978	0.683321
0	O	0.690399	0.0507588	0.0120915
0	O	0.948273	0.625501	0.345305
0	O	0.638893	0.69038	0.178922
0	O	0.315061	0.949869	0.514375
0	O	0.0581237	0.374128	0.852043
0	C	0.365643	0.191171	0.506144
0	C	0.812017	0.173659	0.842772
0	C	0.83054	0.635399	0.171291
0	C	0.640502	0.813718	0.00863728
0	C	0.193247	0.829843	0.337756
0	C	0.174488	0.369467	0.676209
0	O	0.334783	0.265509	0.476202
0	O	0.737181	0.0685987	0.812901
0	O	0.935501	0.666703	0.14153
0	O	0.670728	0.738198	0.980813
0	O	0.268148	0.934889	0.30751
0	O	0.0693937	0.335625	0.644645
0	C	0.368227	0.299086	0.377883
0	C	0.704495	0.0692192	0.714458
0	C	0.93516	0.634336	0.0429552
0	C	0.637168	0.704297	0.882972
0	C	0.300832	0.934302	0.208941
0	C	0.0701227	0.368385	0.545776
0	C	0.270756	0.240768	0.315831
0	C	0.762919	0.0303324	0.652638
0	C	0.975443	0.734879	0.986126
0	C	0.734761	0.762818	0.821226
0	C	0.242462	0.973216	0.147058
0	C	0.0310178	0.270759	0.484192
0	C	0.425787	0.418989	0.372666
0	C	0.584659	0.00683662	0.709516
0	C	0.998461	0.578368	0.0379896
0	C	0.57958	0.584477	0.878227
0	C	0.420694	0.996717	0.203865
0	C	0.00709603	0.424998	0.540919
0	O	0.442764	0.262406	0.357434
0	O	0.741598	0.180508	0.69427
0	O	0.824202	0.560622	0.0210575
0	O	0.562449	0.740811	0.861987
0	O	0.263693	0.823041	0.188806
0	O	0.181481	0.443094	0.525842
0	C	0.430684	0.181971	0.423418
0	C	0.822085	0.248576	0.760491
0	C	0.756065	0.572325	0.0877775
0	C	0.575067	0.82262	0.926421
0	C	0.183299	0.755093	0.25518
0	C	0.249375	0.431679	0.593003
0	C	0.53956	0.212144	0.466921
0	C	0.792125	0.327485	0.803819
0	C	0.676429	0.463448	0.130496
0	C	0.46604	0.79266	0.969996
0	C	0.213429	0.67643	0.298545
0	C	0.329317	0.540775	0.635236
0	C	0.636601	0.273482	0.403005
0	C	0.730729	0.362847	0.739899
0	C	0.641782	0.366939	0.0667567
0	C	0.368822	0.730395	0.906941
0	C	0.274662	0.640864	0.234438
0	C	0.364393	0.636708	0.57082
0	C	0.742328	0.305908	0.45406
0	C	0.698062	0.435894	0.790853
0	C	0.568704	0.260978	0.117831
0	C	0.262972	0.697286	0.957776
0	C	0.307339	0.567737	0.285231
0	C	0.437501	0.742409	0.62209
0	O	0.795491	0.265583	0.394985
0	O	0.738853	0.529539	0.731866
0	O	0.474681	0.208138	0.0596706
0	O	0.209434	0.737623	0.89943
0	O	0.266563	0.474082	0.226252
0	O	0.531206	0.795362	0.563219
0	C	0.717983	0.180162	0.336513
0	C	0.824369	0.537647	0.673507
0	C	0.466345	0.286306	0.00318559
0	C	0.287219	0.823621	0.841688
0	C	0.181066	0.465989	0.167885
0	C	0.539024	0.717862	0.504779
0	C	0.762515	0.193957	0.237967
0	C	0.81069	0.568437	0.575011
0	C	0.434707	0.240197	0.906285
0	C	0.242745	0.809766	0.743267
0	C	0.194695	0.435174	0.0694126
0	C	0.569892	0.7624	0.406308
0	C	0.684553	0.0728633	0.381351
0	C	0.93162	0.611856	0.718569
0	C	0.391867	0.31845	0.0475857
0	C	0.320788	0.930709	0.88698
0	C	0.0738332	0.391742	0.212945
0	C	0.612984	0.684864	0.549903
0	O	0.626705	0.196972	0.332582
0	O	0.807417	0.429551	0.669578
0	O	0.573868	0.378086	0.999296
0	O	0.378463	0.806931	0.837057
0	O	0.197983	0.574106	0.164067
0	O	0.430826	0.626616	0.500625
0	H	0.292974	0.117247	0.528537
0	H	0.885254	0.174119	0.865853
0	H	0.829424	0.708213	0.193534
0	H	0.713949	0.888068	0.0280955
0	H	0.119907	0.829242	0.360421
0	H	0.176135	0.297422	0.700466
0	H	0.292552	0.259898	0.241337
0	H	0.743565	0.0321593	0.578127
0	H	0.974612	0.715859	0.911552
0	H	0.712972	0.743726	0.746808
0	H	0.261842	0.971398	0.0725118
0	H	0.0327465	0.291754	0.409599
0	H	0.211384	0.264584	0.332124
0	H	0.739764	0.947757	0.669685
0	H	0.0574957	0.793297	0.00639443
0	H	0.794083	0.739009	0.837718
0	H	0.265635	0.0558173	0.164039
0	H	0.948323	0.211009	0.501179
0	H	0.232307	0.153893	0.323464
0	H	0.849818	0.0786647	0.660335
0	H	0.926554	0.77229	0.996655
0	H	0.773106	0.849673	0.829087
0	H	0.155575	0.92491	0.154694
0	H	0.0792058	0.232241	0.491812
0	H	0.373076	0.450648	0.391874
0	H	0.554456	0.923244	0.729654
0	H	0.0822229	0.633887	0.0567185
0	H	0.632218	0.552732	0.89746
0	H	0.45088	0.0803281	0.223992
0	H	0.923603	0.370209	0.561049
0	H	0.4542	0.446748	0.300605
0	H	0.556236	0.00623958	0.637541
0	H	0.999425	0.548817	0.967798
0	H	0.551115	0.556654	0.806226
0	H	0.449139	0.997389	0.131866
0	H	0.00633331	0.45328	0.469217
0	H	0.494899	0.456516	0.420078
0	H	0.547382	0.0383181	0.7571
0	H	0.967349	0.50945	0.0851133
0	H	0.51056	0.547107	0.925798
0	H	0.457975	0.965289	0.251484
0	H	0.0381403	0.493681	0.588655
0	H	0.392148	0.104301	0.386013
0	H	0.900089	0.287679	0.723583
0	H	0.717469	0.611755	0.0507896
0	H	0.613807	0.900255	0.889538
0	H	0.105288	0.715976	0.218167
0	H	0.287981	0.391958	0.556498
0	H	0.537942	0.140895	0.499063
0	H	0.863603	0.397082	0.835993
0	H	0.606541	0.46552	0.161596
0	H	0.4675	0.863115	0.00382024
0	H	0.141959	0.606759	0.330616
0	H	0.398463	0.538312	0.667708
0	H	0.634663	0.338806	0.363223
0	H	0.665306	0.295282	0.700254
0	H	0.708744	0.369448	0.0260752
0	H	0.371009	0.664803	0.868202
0	H	0.340068	0.708303	0.194628
0	H	0.296461	0.634018	0.53159
0	H	0.732164	0.269618	0.524696
0	H	0.733805	0.462046	0.861723
0	H	0.542681	0.271173	0.188395
0	H	0.273924	0.735571	0.0270472
0	H	0.271628	0.541603	0.356063
0	H	0.463328	0.732436	0.693006
0	H	0.797183	0.392581	0.458669
0	H	0.611236	0.403726	0.79497
0	H	0.600357	0.206263	0.121348
0	H	0.208284	0.610811	0.964012
0	H	0.394158	0.599897	0.289272
0	H	0.405244	0.79677	0.62638
0	H	0.704868	0.131764	0.190659
0	H	0.8727	0.57307	0.527466
0	H	0.430521	0.298454	0.860137
0	H	0.300536	0.871876	0.696042
0	H	0.132665	0.430427	0.0218114
0	H	0.573965	0.70476	0.358805
0	H	0.836098	0.189732	0.237196
0	H	0.815299	0.646363	0.574346
0	H	0.356395	0.167063	0.90814
0	H	0.16917	0.813893	0.742665
0	H	0.1901	0.357229	0.0686548
0	H	0.648148	0.835613	0.405648
0	H	0.782539	0.272523	0.209297
0	H	0.731984	0.509932	0.546318
0	H	0.493469	0.21933	0.880092
0	H	0.2228	0.73114	0.714777
0	H	0.273459	0.493694	0.0407878
0	H	0.51154	0.78276	0.377839
0	H	0.753228	0.0607305	0.3881
0	H	0.942705	0.692187	0.725897
0	H	0.311209	0.249002	0.0522312
0	H	0.252147	0.942884	0.893736
0	H	0.0626833	0.311376	0.220168
0	H	0.693594	0.754152	0.556777
0	H	0.622751	0.00738556	0.339651
0	H	0.997641	0.617003	0.676786
0	H	0.388021	0.381737	0.00944771
0	H	0.382627	0.996259	0.845278
0	H	0.00784976	0.386776	0.171265
0	H	0.617313	0.623454	0.508304
0	H	0.650772	0.0656934	0.451879
0	H	0.938993	0.58485	0.788849
0	H	0.418986	0.351956	0.117698
0	H	0.354583	0.937774	0.957499
0	H	0.0664366	0.418704	0.283225
0	H	0.586216	0.651111	0.620413
