#******************************************
#
# CIF file created by Zeo++
# Zeo++ is an open source package to
# analyze microporous materials
#
#*******************************************

_cell_length_a		14.4758(0)
_cell_length_b		14.5985(0)
_cell_length_c		9.74298(0)
_cell_angle_alpha		90(0)
_cell_angle_beta		90(0)
_cell_angle_gamma		120.712(0)

_symmetry_space_group_name_H-M		'P1'
_symmetry_Int_Tables_number		1
_symmetry_cell_setting		Monoclinic

loop_
_symmetry_equiv_pos_as_xyz
'+x,+y,+z'

loop_
_atom_site_label
_atom_site_type_symbol
_atom_site_fract_x
_atom_site_fract_y
_atom_site_fract_z
0	O	0.72386	0.318101	0.411213
0	O	0.730568	0.417285	0.73925
0	O	0.642426	0.330108	0.0900337
0	O	0.338483	0.724556	0.912397
0	O	0.328954	0.628361	0.240486
0	O	0.424338	0.717994	0.57966
0	O	0.0955105	0.619109	0.346537
0	O	0.44706	0.503767	0.676722
0	O	0.560534	0.960055	0.020957
0	O	0.964976	0.42685	0.845676
0	O	0.582388	0.513792	0.159168
0	O	0.501046	0.085184	0.519433
0	O	0.0033883	0.56163	0.15199
0	O	0.484839	0.452123	0.480216
0	O	0.599648	0.0479271	0.822858
0	O	0.0571778	0.483966	0.651214
0	O	0.582329	0.601406	0.974477
0	O	0.460965	0.99664	0.321827
0	N	0.680262	0.221971	0.650817
0	N	0.829796	0.468873	0.976629
0	N	0.581304	0.368225	0.32755
0	N	0.382418	0.822514	0.151154
0	N	0.230577	0.576754	0.478316
0	N	0.482113	0.676458	0.816206
0	H	0.660484	0.273501	0.698917
0	H	0.775486	0.396433	0.0234794
0	H	0.649716	0.38671	0.383948
0	H	0.402426	0.771775	0.200842
0	H	0.284881	0.649001	0.525141
0	H	0.411921	0.655888	0.869886
0	H	0.660567	0.156985	0.718219
0	H	0.895062	0.512532	0.0453162
0	H	0.530837	0.386539	0.387197
0	H	0.402097	0.888269	0.217006
0	H	0.165179	0.532792	0.546823
0	H	0.531987	0.658598	0.878369
0	H	0.630684	0.190887	0.562333
0	H	0.860087	0.451158	0.887583
0	H	0.605597	0.419075	0.241218
0	H	0.431735	0.852513	0.0623526
0	H	0.20017	0.594649	0.389514
0	H	0.460291	0.627803	0.727261
0	N	0.89684	0.445311	0.463583
0	N	0.61038	0.469658	0.791334
0	N	0.588813	0.1561	0.134471
0	N	0.164488	0.599374	0.96355
0	N	0.448571	0.574822	0.291164
0	N	0.472575	0.889479	0.632279
0	H	0.962387	0.473149	0.531751
0	H	0.586088	0.511246	0.857323
0	H	0.548832	0.0899149	0.200456
0	H	0.0990804	0.571767	0.0319372
0	H	0.471841	0.532071	0.355986
0	H	0.511874	0.954875	0.699785
0	C	0.797671	0.281682	0.608813
0	C	0.773551	0.528814	0.937231
0	C	0.524186	0.252641	0.281876
0	C	0.264912	0.762119	0.109822
0	C	0.286742	0.516887	0.438464
0	C	0.539194	0.792867	0.774916
0	H	0.848194	0.334894	0.697687
0	H	0.720244	0.524637	0.0259662
0	H	0.525322	0.201656	0.370108
0	H	0.215017	0.708898	0.199061
0	H	0.340086	0.520972	0.527425
0	H	0.536667	0.842112	0.864436
0	C	0.837467	0.204242	0.571601
0	C	0.855501	0.647057	0.902869
0	C	0.405806	0.212776	0.241617
0	C	0.224117	0.838858	0.0731084
0	C	0.205545	0.398369	0.404529
0	C	0.658131	0.833852	0.73668
0	H	0.918574	0.254046	0.522688
0	H	0.808391	0.680504	0.85493
0	H	0.374031	0.132696	0.19233
0	H	0.142979	0.788502	0.024464
0	H	0.253346	0.365813	0.356183
0	H	0.689774	0.913824	0.687171
0	C	0.851076	0.155124	0.703117
0	C	0.906535	0.708334	0.0355939
0	C	0.340509	0.198726	0.37173
0	C	0.210291	0.887624	0.204852
0	C	0.156047	0.33714	0.537626
0	C	0.72212	0.848377	0.868113
0	H	0.904229	0.21682	0.776549
0	H	0.845996	0.704114	0.10707
0	H	0.347547	0.145984	0.445879
0	H	0.157362	0.825689	0.278161
0	H	0.218118	0.345366	0.609707
0	H	0.71381	0.900924	0.941222
0	H	0.886302	0.105759	0.68092
0	H	0.962748	0.792859	0.0139684
0	H	0.255084	0.163777	0.347482
0	H	0.174794	0.93679	0.183018
0	H	0.103101	0.251851	0.517287
0	H	0.807848	0.883515	0.84588
0	H	0.773805	0.10336	0.75492
0	H	0.952848	0.678362	0.0893581
0	H	0.366256	0.275319	0.423089
0	H	0.287495	0.939565	0.256749
0	H	0.107075	0.364511	0.590123
0	H	0.695745	0.771835	0.920281
0	C	0.761862	0.118392	0.468528
0	C	0.941358	0.657724	0.799768
0	C	0.397646	0.288372	0.138569
0	C	0.299032	0.924772	0.969565
0	C	0.118927	0.386385	0.30197
0	C	0.668116	0.758733	0.634394
0	H	0.686883	0.0580693	0.520311
0	H	0.000642393	0.642667	0.85149
0	H	0.41191	0.362095	0.191303
0	H	0.373695	0.985699	0.0214458
0	H	0.0592027	0.400662	0.353927
0	H	0.654894	0.685719	0.687695
0	H	0.735559	0.154993	0.38902
0	H	0.903432	0.594911	0.719694
0	H	0.463878	0.317472	0.0621448
0	H	0.325819	0.888437	0.890298
0	H	0.156076	0.44906	0.221604
0	H	0.603007	0.729941	0.556461
0	C	0.814039	0.0625539	0.398833
0	C	0.000352516	0.766983	0.731358
0	C	0.289628	0.236542	0.064917
0	C	0.24602	0.979556	0.899184
0	C	0.0609808	0.276987	0.2338
0	C	0.777015	0.812148	0.562657
0	H	0.765643	0.0157735	0.310656
0	H	0.0508954	0.767651	0.646779
0	H	0.289716	0.290382	0.98609
0	H	0.293972	0.0258724	0.810381
0	H	0.0107993	0.275853	0.148481
0	H	0.779442	0.759006	0.484995
0	H	0.820802	0.00702709	0.468944
0	H	0.054204	0.829899	0.80394
0	H	0.223507	0.21846	0.135858
0	H	0.239098	0.0352934	0.968533
0	H	0.00704574	0.213935	0.306122
0	H	0.84276	0.832106	0.63521
0	H	0.895245	0.119896	0.36038
0	H	0.944679	0.789757	0.688853
0	H	0.271356	0.161867	0.013609
0	H	0.164826	0.921665	0.861221
0	H	0.117418	0.254837	0.192222
0	H	0.794188	0.886311	0.510661
0	C	0.80431	0.351126	0.486146
0	C	0.701915	0.467539	0.814079
0	C	0.59035	0.248538	0.160989
0	C	0.258026	0.692626	0.98701
0	C	0.357539	0.577708	0.314544
0	C	0.473977	0.798129	0.653982
0	C	0.900647	0.520876	0.358441
0	C	0.533049	0.398389	0.685682
0	C	0.660107	0.153165	0.0270238
0	C	0.160191	0.52454	0.856863
0	C	0.526485	0.64412	0.184719
0	C	0.400363	0.892133	0.526056
0	H	0.833811	0.47565	0.282735
0	H	0.577622	0.377375	0.609548
0	H	0.678321	0.217456	0.949884
0	H	0.226425	0.570804	0.780657
0	H	0.485176	0.671829	0.112592
0	H	0.381138	0.827386	0.449105
0	C	0.889921	0.609826	0.424319
0	C	0.442274	0.296623	0.749485
0	C	0.764662	0.169613	0.087735
0	C	0.172953	0.43598	0.919838
0	C	0.622991	0.740352	0.250652
0	C	0.296498	0.875971	0.588548
0	H	0.821302	0.578378	0.49495
0	H	0.473163	0.255311	0.811585
0	H	0.802814	0.239259	0.155956
0	H	0.241918	0.467798	0.989981
0	H	0.598051	0.785466	0.315664
0	H	0.258051	0.805451	0.65522
0	H	0.879168	0.657854	0.346568
0	H	0.390141	0.240638	0.670191
0	H	0.822483	0.182429	0.00632728
0	H	0.185527	0.390246	0.840326
0	H	0.677724	0.795225	0.172292
0	H	0.238417	0.864708	0.508276
0	H	0.962224	0.663821	0.484202
0	H	0.391905	0.313452	0.817176
0	H	0.75112	0.100285	0.148653
0	H	0.10137	0.380072	0.979187
0	H	0.668835	0.71638	0.316254
0	H	0.310991	0.944755	0.651336
0	C	0.00994353	0.570344	0.280943
0	C	0.485235	0.458689	0.609554
0	C	0.599731	0.0434442	0.952286
0	C	0.0506567	0.47518	0.780291
0	C	0.566289	0.579856	0.101412
0	C	0.461028	0.00154612	0.451093
