#******************************************
#
# CIF file created by Zeo++
# Zeo++ is an open source package to
# analyze microporous materials
#
#*******************************************

_cell_length_a		11.7923(0)
_cell_length_b		11.86(0)
_cell_length_c		7.30589(0)
_cell_angle_alpha		90(0)
_cell_angle_beta		90(0)
_cell_angle_gamma		90(0)

_symmetry_space_group_name_H-M		'P1'
_symmetry_Int_Tables_number		1
_symmetry_cell_setting		Monoclinic

loop_
_symmetry_equiv_pos_as_xyz
'+x,+y,+z'

loop_
_atom_site_label
_atom_site_type_symbol
_atom_site_fract_x
_atom_site_fract_y
_atom_site_fract_z
0	C	0.283496	0.465915	0.63845
0	C	0.760056	0.571824	0.638708
0	C	0.468616	0.756314	0.426531
0	C	0.575023	0.281465	0.4267
0	C	0.29971	0.467112	0.828204
0	C	0.74387	0.570622	0.828446
0	C	0.469865	0.740287	0.236721
0	C	0.573849	0.297478	0.237033
0	H	0.29311	0.387899	0.904665
0	H	0.750473	0.649837	0.904905
0	H	0.390257	0.746861	0.160134
0	H	0.653516	0.290927	0.160521
0	C	0.328528	0.566943	0.918165
0	C	0.715106	0.470824	0.918431
0	C	0.570339	0.711704	0.146865
0	C	0.473483	0.32606	0.146975
0	H	0.343638	0.566261	0.0661243
0	H	0.7	0.471482	0.0664126
0	H	0.569734	0.696877	0.998846
0	H	0.474125	0.340952	0.998968
0	C	0.343607	0.666689	0.819605
0	C	0.700079	0.371045	0.819931
0	C	0.670554	0.696547	0.24559
0	C	0.373143	0.34115	0.245516
0	H	0.370195	0.743007	0.891183
0	H	0.673525	0.294728	0.891572
0	H	0.747312	0.670027	0.17411
0	H	0.296377	0.367615	0.173955
0	C	0.32819	0.669117	0.629519
0	C	0.715438	0.368589	0.629845
0	C	0.672906	0.711829	0.435711
0	C	0.370727	0.325929	0.43567
0	C	0.293223	0.568839	0.543249
0	C	0.750371	0.468866	0.543531
0	C	0.572078	0.746836	0.521782
0	C	0.471505	0.290984	0.521921
0	C	0.26551	0.354878	0.54243
0	C	0.778121	0.682859	0.542636
0	C	0.356888	0.773886	0.52265
0	C	0.686713	0.263783	0.523046
0	H	0.24782	0.287489	0.645361
0	H	0.795695	0.75022	0.645663
0	H	0.289049	0.791241	0.419774
0	H	0.754537	0.246393	0.42015
0	H	0.190242	0.358311	0.451414
0	H	0.853355	0.679433	0.451876
0	H	0.360144	0.848696	0.613478
0	H	0.683419	0.189068	0.613819
0	C	0.158085	0.57015	0.30235
0	C	0.885543	0.467678	0.302699
0	C	0.573061	0.881991	0.761527
0	C	0.470698	0.156006	0.761951
0	H	0.101004	0.558461	0.420737
0	H	0.942578	0.479424	0.421084
0	H	0.561579	0.938338	0.64253
0	H	0.482604	0.0996225	0.64317
0	H	0.147858	0.497352	0.206395
0	H	0.895739	0.540394	0.206547
0	H	0.499743	0.892508	0.857124
0	H	0.54384	0.145788	0.85793
0	C	0.133452	0.679428	0.20238
0	C	0.910276	0.358305	0.202974
0	C	0.682883	0.906684	0.861636
0	C	0.360735	0.131068	0.861462
0	C	0.98356	0.758145	0.0113981
0	C	0.0602137	0.279756	0.0118035
0	C	0.762436	0.0556892	0.0523679
0	C	0.281282	0.981787	0.0517105
0	H	0.0186979	0.841676	0.0455407
0	H	0.0251447	0.196217	0.0458516
0	H	0.846303	0.0201151	0.018563
0	H	0.197412	0.017294	0.018082
0	H	0.89036	0.756553	0.0329292
0	H	0.153416	0.28139	0.0334256
0	H	0.761447	0.148295	0.0304177
0	H	0.282315	0.889198	0.0294704
0	C	0.0196653	0.715843	0.824885
0	C	0.0241699	0.322096	0.825331
0	C	0.719507	0.0204382	0.239021
0	C	0.324229	0.0168396	0.238439
0	H	0.112558	0.712627	0.81138
0	H	0.931294	0.325726	0.811898
0	H	0.716468	0.928141	0.253552
0	H	0.327709	0.109128	0.252985
0	H	0.986719	0.770573	0.716104
0	H	0.0568012	0.267064	0.716524
0	H	0.774188	0.0538373	0.347818
0	H	0.269282	0.983716	0.347135
0	H	0.987299	0.630329	0.799556
0	H	0.0569445	0.407411	0.799637
0	H	0.633381	0.0525489	0.263425
0	H	0.410174	0.984298	0.263091
0	O	0.276031	0.569874	0.352646
0	O	0.767577	0.467861	0.352931
0	O	0.572991	0.764504	0.712286
0	O	0.470497	0.273455	0.71245
0	O	0.193853	0.758905	0.168448
0	O	0.850003	0.278604	0.169759
0	O	0.762765	0.846454	0.89545
0	O	0.280627	0.191099	0.894884
0	O	0.0215833	0.67626	0.149216
0	O	0.0220859	0.361618	0.14957
0	O	0.679938	0.017928	0.914661
0	O	0.363769	0.0197647	0.914159
