#******************************************
#
# CIF file created by Zeo++
# Zeo++ is an open source package to
# analyze microporous materials
#
#*******************************************

_cell_length_a		20.0936(0)
_cell_length_b		20.4368(0)
_cell_length_c		11.3619(0)
_cell_angle_alpha		90(0)
_cell_angle_beta		90(0)
_cell_angle_gamma		122.557(0)

_symmetry_space_group_name_H-M		'P1'
_symmetry_Int_Tables_number		1
_symmetry_cell_setting		Monoclinic

loop_
_symmetry_equiv_pos_as_xyz
'+x,+y,+z'

loop_
_atom_site_label
_atom_site_type_symbol
_atom_site_fract_x
_atom_site_fract_y
_atom_site_fract_z
0	Cl	0.643748	0.333094	0.36524
0	Cl	0.703527	0.30185	0.69012
0	Cl	0.734215	0.401514	0.0139461
0	Cl	0.443185	0.70913	0.859103
0	Cl	0.371752	0.737964	0.208769
0	Cl	0.342554	0.635993	0.541223
0	F	0.80687	0.215684	0.969543
0	F	0.844565	0.607259	0.298134
0	F	0.436762	0.223864	0.597311
0	F	0.261303	0.81888	0.444215
0	F	0.240253	0.425746	0.751851
0	F	0.629969	0.798313	0.124975
0	O	0.453563	0.513737	0.297205
0	O	0.539625	0.926407	0.596015
0	O	0.126158	0.599304	0.977432
0	O	0.618684	0.512562	0.7838
0	O	0.533326	0.115746	0.143702
0	O	0.952778	0.430469	0.454594
0	N	0.164276	0.491371	0.0887816
0	N	0.567535	0.669695	0.382763
0	N	0.38588	0.884422	0.69872
0	N	0.903995	0.535917	0.552323
0	N	0.502568	0.35147	0.880039
0	N	0.68534	0.13551	0.232347
0	N	0.241619	0.456982	0.177395
0	N	0.599007	0.781454	0.471297
0	N	0.282035	0.809182	0.817704
0	N	0.824418	0.567232	0.64274
0	N	0.470961	0.245453	0.987876
0	N	0.798064	0.219462	0.327367
0	C	0.120592	0.41069	0.106471
0	C	0.648866	0.713282	0.405399
0	C	0.351557	0.926216	0.725627
0	C	0.945836	0.616614	0.567999
0	C	0.421967	0.311574	0.907203
0	C	0.726364	0.0991489	0.251085
0	C	0.167751	0.387693	0.162278
0	C	0.669742	0.783485	0.46107
0	C	0.287609	0.880237	0.800024
0	C	0.897188	0.637427	0.624824
0	C	0.401532	0.24574	0.975196
0	C	0.796664	0.150694	0.310709
0	C	0.158946	0.315288	0.199011
0	C	0.742314	0.850237	0.505761
0	C	0.235755	0.897046	0.865634
0	C	0.907599	0.709957	0.664154
0	C	0.332082	0.187754	0.0366264
0	C	0.862047	0.147244	0.354676
0	C	0.210956	0.314175	0.273279
0	C	0.742484	0.902113	0.57923
0	C	0.180101	0.831015	0.947814
0	C	0.856572	0.710732	0.740422
0	C	0.335436	0.144827	0.123394
0	C	0.915122	0.200202	0.431732
0	C	0.201288	0.236982	0.310813
0	C	0.820653	0.970968	0.619526
0	C	0.116983	0.84777	0.96917
0	C	0.870133	0.788247	0.777522
0	C	0.267244	0.101069	0.21175
0	C	0.983587	0.193613	0.471864
0	C	0.18135	0.175768	0.214679
0	C	0.887633	0.0068673	0.539546
0	C	0.146698	0.849923	0.84252
0	C	0.896234	0.848703	0.688196
0	C	0.196148	0.111965	0.183271
0	C	0.0159509	0.163976	0.388752
0	C	0.271727	0.242916	0.374843
0	C	0.816159	0.0393269	0.675395
0	C	0.0374049	0.778654	0.00936094
0	C	0.800061	0.786627	0.838994
0	C	0.252682	0.0160154	0.220426
0	C	0.0541313	0.266555	0.531529
0	C	0.326147	0.319054	0.438859
0	C	0.738574	0.013552	0.734609
0	C	0.0508787	0.722412	0.0797489
0	C	0.748946	0.711964	0.909676
0	C	0.32903	0.0259362	0.272812
0	C	0.0296207	0.316322	0.594472
0	C	0.350495	0.383991	0.348987
0	C	0.670451	0.964633	0.64805
0	C	0.0974777	0.695249	0.00943902
0	C	0.71984	0.642663	0.825459
0	C	0.400644	0.0726237	0.188224
0	C	0.984752	0.336984	0.506612
0	C	0.278987	0.392381	0.32544
0	C	0.662749	0.886646	0.623653
0	C	0.184639	0.764013	0.988826
0	C	0.789988	0.633682	0.793489
0	C	0.413721	0.15306	0.15941
0	C	0.902233	0.26312	0.480339
0	C	0.30909	0.459173	0.232601
0	C	0.596552	0.844733	0.528308
0	C	0.220607	0.741509	0.886266
0	C	0.758451	0.56541	0.702956
0	C	0.477777	0.189958	0.0605333
0	C	0.863218	0.287857	0.386762
0	C	0.238228	0.518571	0.130603
0	C	0.538095	0.711966	0.422219
0	C	0.34308	0.813703	0.752324
0	C	0.830551	0.50695	0.597601
0	C	0.530863	0.310008	0.927102
0	C	0.729554	0.208574	0.277774
0	C	0.248186	0.415458	0.431641
0	C	0.63927	0.832395	0.729848
0	C	0.237331	0.789374	0.0971877
0	C	0.82604	0.616218	0.899638
0	C	0.43952	0.20606	0.26816
0	C	0.846583	0.227248	0.586886
0	C	0.430719	0.456743	0.388637
0	C	0.595812	0.96237	0.689835
0	C	0.0863149	0.61952	0.0623604
0	C	0.642129	0.570371	0.874337
0	C	0.474933	0.0743289	0.232672
0	C	0.989306	0.412432	0.547652
0	C	0.424152	0.488882	0.505988
0	C	0.559915	0.920407	0.804334
0	C	0.120882	0.626729	0.184622
0	C	0.65133	0.540772	0.992553
0	C	0.511151	0.112911	0.34885
0	C	0.946485	0.403053	0.663758
0	C	0.492401	0.433905	0.388291
0	C	0.618727	0.0485694	0.693697
0	C	0.997611	0.55749	0.0564436
0	C	0.580768	0.59318	0.875409
0	C	0.455379	0.989608	0.230932
0	C	0.0782271	0.477006	0.549004
0	C	0.519674	0.426254	0.278123
0	C	0.630362	0.0870563	0.586082
0	C	0.965092	0.52788	0.944617
0	C	0.555037	0.604283	0.765764
0	C	0.453459	0.957721	0.12112
0	C	0.117582	0.504576	0.440576
0	C	0.568705	0.397527	0.269795
0	C	0.656167	0.165369	0.583847
0	C	0.883115	0.479122	0.929935
0	C	0.510933	0.638661	0.759728
0	C	0.428472	0.879952	0.113039
0	C	0.199501	0.555158	0.43697
0	C	0.58992	0.376698	0.373893
0	C	0.669523	0.203963	0.691182
0	C	0.835314	0.45893	0.0301928
0	C	0.49127	0.659874	0.86514
0	C	0.407988	0.836754	0.217123
0	C	0.240841	0.577901	0.54326
0	C	0.568782	0.389017	0.484507
0	C	0.656427	0.166671	0.799255
0	C	0.866017	0.483456	0.143444
0	C	0.510006	0.643482	0.975271
0	C	0.415628	0.869338	0.327909
0	C	0.203043	0.555074	0.652062
0	C	0.51923	0.417501	0.491194
0	C	0.631722	0.0885214	0.799773
0	C	0.94806	0.533184	0.155949
0	C	0.555308	0.609842	0.979773
0	C	0.439497	0.946961	0.33418
0	C	0.120968	0.504018	0.65445
0	C	0.038218	0.360104	0.0707637
0	C	0.700631	0.686094	0.376799
0	C	0.376104	0.00323637	0.683579
0	C	0.0281279	0.668871	0.532301
0	C	0.372613	0.339546	0.867332
0	C	0.699377	0.0210783	0.212915
0	C	0.982662	0.381271	0.0917953
0	C	0.672821	0.60706	0.391429
0	C	0.456235	0.0653004	0.683685
0	C	0.083694	0.647025	0.548249
0	C	0.40188	0.419163	0.878069
0	C	0.619891	0.959347	0.228117
0	C	0.903556	0.332225	0.0603826
0	C	0.721491	0.579782	0.36547
0	C	0.477447	0.140047	0.654318
0	C	0.162883	0.697428	0.518826
0	C	0.357746	0.449036	0.838333
0	C	0.595926	0.883739	0.199241
0	C	0.881411	0.261791	0.00601505
0	C	0.797953	0.633032	0.325252
0	C	0.417175	0.151954	0.624212
0	C	0.185604	0.770045	0.472649
0	C	0.283471	0.397542	0.78861
0	C	0.652712	0.870936	0.153199
0	C	0.93369	0.237869	0.984361
0	C	0.827834	0.712063	0.311275
0	C	0.337996	0.0927693	0.619757
0	C	0.133081	0.794002	0.454683
0	C	0.252789	0.318064	0.775149
0	C	0.731045	0.929472	0.13482
0	C	0.0127699	0.288614	0.0165795
0	C	0.778172	0.738365	0.337704
0	C	0.317131	0.0177092	0.649536
0	C	0.0539101	0.74231	0.484999
0	C	0.298175	0.289362	0.816093
0	C	0.754472	0.0052968	0.164741
0	H	0.11008	0.26304	0.162146
0	H	0.796122	0.855663	0.47277
0	H	0.263113	0.958929	0.889538
0	H	0.958693	0.761769	0.628909
0	H	0.275105	0.182049	0.0194564
0	H	0.867286	0.100313	0.321066
0	H	0.148479	0.211518	0.372352
0	H	0.843683	0.949728	0.692498
0	H	0.132725	0.90274	0.00943681
0	H	0.920422	0.813803	0.844379
0	H	0.297401	0.129609	0.302702
0	H	0.957599	0.144631	0.541906
0	H	0.144206	0.175968	0.15149
0	H	0.887126	0.975865	0.464153
0	H	0.115347	0.82315	0.762382
0	H	0.906345	0.836614	0.60004
0	H	0.205588	0.127894	0.0861763
0	H	0.980045	0.130699	0.314295
0	H	0.247375	0.193735	0.437376
0	H	0.866036	0.0727857	0.73671
0	H	0.00821549	0.799219	0.0677437
0	H	0.822133	0.838272	0.897473
0	H	0.199777	0.977812	0.27664
0	H	0.0841378	0.249066	0.595357
0	H	0.309798	0.236623	0.309887
0	H	0.825231	0.0804007	0.603781
0	H	0.996785	0.74902	0.93379
0	H	0.762577	0.792699	0.77144
0	H	0.239183	0.985249	0.132051
0	H	0.0988911	0.303108	0.463861
0	H	0.299679	0.328193	0.517779
0	H	0.730622	0.979385	0.815739
0	H	0.0832076	0.750751	0.160804
0	H	0.78182	0.708079	0.984094
0	H	0.344399	0.057726	0.360191
0	H	0.992304	0.286164	0.672755
0	H	0.378044	0.318614	0.46997
0	H	0.738738	0.0637552	0.767393
0	H	0.992414	0.672665	0.10604
0	H	0.698832	0.712371	0.950863
0	H	0.320624	0.969734	0.291225
0	H	0.0834448	0.369549	0.63288
0	H	0.346379	0.455624	0.161916
0	H	0.60187	0.886123	0.458288
0	H	0.17221	0.701655	0.823312
0	H	0.719187	0.568386	0.636241
0	H	0.474092	0.143624	0.00391917
0	H	0.906703	0.327147	0.319254
0	H	0.349716	0.5171	0.275117
0	H	0.537224	0.821782	0.569379
0	H	0.243869	0.707037	0.922459
0	H	0.720808	0.508852	0.750183
0	H	0.537592	0.219384	0.099009
0	H	0.841276	0.321552	0.429529
0	H	0.290294	0.577864	0.128016
0	H	0.477444	0.696509	0.416065
0	H	0.353751	0.767248	0.745656
0	H	0.782845	0.446772	0.598621
0	H	0.590166	0.322255	0.917229
0	H	0.715203	0.252706	0.274569
0	H	0.294288	0.472551	0.468899
0	H	0.58073	0.814692	0.764751
0	H	0.249543	0.745389	0.124604
0	H	0.782084	0.560929	0.943218
0	H	0.498148	0.220624	0.3012
0	H	0.830493	0.266749	0.625226
0	H	0.198629	0.422068	0.408875
0	H	0.634067	0.777281	0.709661
0	H	0.293841	0.843373	0.0822764
0	H	0.874876	0.609997	0.870808
0	H	0.441952	0.260143	0.246526
0	H	0.789941	0.175014	0.562937
0	H	0.227927	0.373006	0.503627
0	H	0.681159	0.859135	0.801809
0	H	0.212419	0.801599	0.17305
0	H	0.848309	0.661973	0.966547
0	H	0.398387	0.175782	0.343495
0	H	0.872858	0.211553	0.657579
0	H	0.498864	0.565221	0.321711
0	H	0.486483	0.91671	0.619465
0	H	0.133776	0.558398	0.0106863
0	H	0.573646	0.46032	0.810254
0	H	0.582985	0.118074	0.164066
0	H	0.943474	0.47178	0.480405
0	H	0.405893	0.445793	0.57647
0	H	0.601187	0.945319	0.877825
0	H	0.103922	0.656431	0.246729
0	H	0.671194	0.585329	0.0622297
0	H	0.469725	0.0907869	0.422233
0	H	0.971661	0.387998	0.736733
0	H	0.479007	0.541786	0.533018
0	H	0.507027	0.92035	0.829714
0	H	0.1044	0.570763	0.221779
0	H	0.596328	0.488466	0.0232751
0	H	0.558589	0.103973	0.370531
0	H	0.948074	0.455569	0.689435
0	H	0.379349	0.504078	0.500746
0	H	0.540971	0.859288	0.797694
0	H	0.18607	0.661014	0.181202
0	H	0.696249	0.525149	0.987978
0	H	0.53658	0.17592	0.341789
0	H	0.883124	0.35589	0.657259
0	H	0.501597	0.442642	0.198034
0	H	0.618432	0.0548126	0.503196
0	H	0.00468473	0.54388	0.868941
0	H	0.570681	0.586349	0.684905
0	H	0.473027	0.994749	0.0421254
0	H	0.0837458	0.485723	0.358593
0	H	0.589685	0.391143	0.184751
0	H	0.665606	0.195892	0.500289
0	H	0.858195	0.458512	0.842506
0	H	0.492822	0.649233	0.675412
0	H	0.423074	0.852415	0.0275833
0	H	0.230297	0.575976	0.354011
0	H	0.588896	0.375901	0.564519
0	H	0.665268	0.197437	0.882128
0	H	0.827182	0.4653	0.220058
0	H	0.491571	0.657543	0.0564742
0	H	0.401918	0.835162	0.408546
0	H	0.235509	0.574545	0.734247
0	H	0.500885	0.42537	0.577915
0	H	0.622509	0.0589721	0.884167
0	H	0.971847	0.55319	0.245519
0	H	0.570727	0.597966	0.06661
0	H	0.446529	0.973917	0.419895
0	H	0.0904623	0.484201	0.739297
0	H	0.00283058	0.438064	0.132919
0	H	0.61267	0.567415	0.423726
0	H	0.501686	0.0544775	0.708245
0	H	0.0635848	0.5893	0.584931
0	H	0.46006	0.457572	0.918126
0	H	0.577944	0.972605	0.262673
0	H	0.861268	0.348833	0.0777807
0	H	0.70014	0.518616	0.376769
0	H	0.538946	0.188343	0.655931
0	H	0.205432	0.680593	0.531853
0	H	0.381372	0.511323	0.844266
0	H	0.535158	0.836258	0.212438
0	H	0.914706	0.182311	0.943464
0	H	0.887857	0.752541	0.280922
0	H	0.292268	0.103567	0.595735
0	H	0.15263	0.850793	0.418665
0	H	0.195408	0.280177	0.731605
0	H	0.774262	0.918385	0.0990623
0	H	0.0565566	0.273451	0.998097
0	H	0.799203	0.799818	0.327807
0	H	0.255838	0.970846	0.646912
0	H	0.0108077	0.758525	0.471614
0	H	0.275286	0.227426	0.806683
0	H	0.814738	0.0530099	0.149945
0	H	0.361797	0.366167	0.260588
0	H	0.687112	0.995691	0.56
0	H	0.0712635	0.679003	0.917697
0	H	0.702216	0.65678	0.739331
0	H	0.383916	0.0396231	0.101291
0	H	0.0175137	0.352327	0.419351
