#******************************************
#
# CIF file created by Zeo++
# Zeo++ is an open source package to
# analyze microporous materials
#
#*******************************************

_cell_length_a		11.7483(0)
_cell_length_b		15.1704(0)
_cell_length_c		18.6253(0)
_cell_angle_alpha		71.8917(0)
_cell_angle_beta		72.4866(0)
_cell_angle_gamma		78.0196(0)

_symmetry_space_group_name_H-M		'P1'
_symmetry_Int_Tables_number		1
_symmetry_cell_setting		Triclinic

loop_
_symmetry_equiv_pos_as_xyz
'+x,+y,+z'

loop_
_atom_site_label
_atom_site_type_symbol
_atom_site_fract_x
_atom_site_fract_y
_atom_site_fract_z
0	C	0.580691	0.796989	0.359736
0	C	0.4039	0.202361	0.693223
0	H	0.659371	0.743141	0.349895
0	H	0.325101	0.25608	0.703197
0	H	0.552345	0.789437	0.423213
0	H	0.432266	0.210174	0.629707
0	O	0.847107	0.784022	0.296639
0	O	0.137752	0.215254	0.756002
0	H	0.93723	0.756128	0.280768
0	H	0.0475842	0.243091	0.771902
0	O	0.97791	0.560354	0.294658
0	O	0.00721884	0.439513	0.758389
0	H	0.0185344	0.612417	0.248727
0	H	0.966728	0.387278	0.804115
0	O	0.815503	0.715468	0.164747
0	O	0.169265	0.283813	0.888015
0	H	0.847015	0.754962	0.187933
0	H	0.13771	0.244378	0.864817
0	N	0.0905656	0.776599	0.282227
0	N	0.894405	0.222761	0.770344
0	N	0.171982	0.634487	0.182203
0	N	0.81282	0.364841	0.870431
0	N	0.0249488	0.831851	0.126788
0	N	0.959915	0.167446	0.925838
0	C	0.924392	0.859713	0.3661
0	C	0.0605365	0.13963	0.686469
0	C	0.866983	0.364932	0.522738
0	C	0.117861	0.634153	0.529882
0	H	0.902691	0.293171	0.517809
0	H	0.0824005	0.705975	0.534722
0	H	0.914782	0.380739	0.559279
0	H	0.0698137	0.618357	0.493482
0	C	0.507558	0.970107	0.329046
0	C	0.477443	0.0293467	0.7234
0	H	0.476024	0.967949	0.391667
0	H	0.509008	0.0318548	0.660714
0	H	0.532439	0.0408926	0.297168
0	H	0.452784	0.958447	0.755016
0	C	0.254094	0.674757	0.207565
0	C	0.73079	0.324565	0.845019
0	H	0.286183	0.739307	0.163275
0	H	0.698728	0.259978	0.889269
0	H	0.337942	0.624812	0.214925
0	H	0.646912	0.37446	0.83765
0	C	0.0613767	0.490179	0.321052
0	C	0.923569	0.509362	0.731784
0	C	0.890455	0.4355	0.440531
0	C	0.09442	0.563743	0.612165
0	C	0.179552	0.477222	0.274073
0	C	0.805264	0.522147	0.778642
0	C	0.707602	0.977935	0.382358
0	C	0.277241	0.0213187	0.670289
0	H	0.623412	0.0251586	0.389793
0	H	0.361387	0.974035	0.662907
0	C	0.189814	0.696268	0.286663
0	C	0.795155	0.303098	0.765913
0	H	0.147608	0.633668	0.327861
0	H	0.837385	0.365703	0.724746
0	H	0.259115	0.707293	0.31178
0	H	0.725895	0.292094	0.74076
0	C	0.832571	0.850124	0.335649
0	C	0.152325	0.149195	0.716963
0	C	0.618883	0.895577	0.315285
0	C	0.365934	0.103651	0.737402
0	C	0.211008	0.53176	0.189304
0	C	0.773691	0.467547	0.863391
0	H	0.308084	0.516045	0.161259
0	H	0.676564	0.483201	0.891361
0	H	0.160705	0.507731	0.158084
0	H	0.823842	0.491571	0.894708
0	C	0.231253	0.351815	0.382424
0	C	0.753588	0.647368	0.670178
0	C	0.5585	0.886803	0.19801
0	C	0.426161	0.11199	0.854872
0	H	0.590683	0.891731	0.134391
0	H	0.393962	0.106793	0.918533
0	C	0.660776	0.903692	0.226358
0	C	0.324007	0.0951354	0.826398
0	H	0.689368	0.973079	0.19411
0	H	0.295649	0.0256223	0.858421
0	H	0.740495	0.851002	0.214272
0	H	0.24412	0.147623	0.838646
0	C	0.110789	0.362217	0.425572
0	C	0.874095	0.637048	0.627092
0	H	0.0847937	0.315067	0.483894
0	H	0.900091	0.684125	0.568736
0	C	0.905252	0.929363	0.404876
0	C	0.0796463	0.069967	0.647721
0	H	0.976066	0.93486	0.429408
0	H	0.00883676	0.0644891	0.623178
0	C	0.821617	0.411572	0.390986
0	C	0.163548	0.587718	0.661521
0	H	0.837391	0.461621	0.33208
0	H	0.147819	0.537781	0.720483
0	H	0.857394	0.34144	0.382236
0	H	0.127987	0.657918	0.670163
0	C	0.023315	0.429781	0.396626
0	C	0.961588	0.569594	0.656131
0	C	0.925925	0.842622	0.958052
0	C	0.0587779	0.156624	0.0946718
0	H	0.970199	0.904405	0.923505
0	H	0.0145469	0.0948171	0.129194
0	C	0.720928	0.908933	0.344383
0	C	0.263932	0.0903406	0.708242
0	C	0.685921	0.417467	0.430811
0	C	0.2992	0.581597	0.62157
0	H	0.638026	0.400486	0.394437
0	H	0.347319	0.59861	0.657806
0	C	0.521727	0.788585	0.242828
0	C	0.462687	0.210338	0.81032
0	H	0.599754	0.73444	0.230391
0	H	0.384493	0.264323	0.822883
0	H	0.450119	0.775039	0.22206
0	H	0.53417	0.223874	0.831205
0	C	0.26387	0.408926	0.306115
0	C	0.720904	0.590241	0.74648
0	H	0.356027	0.399693	0.270889
0	H	0.628637	0.599324	0.781592
0	C	0.840514	0.534892	0.451105
0	C	0.144039	0.464246	0.601754
0	H	0.888779	0.552872	0.486022
0	H	0.0955496	0.446255	0.566974
0	H	0.8566	0.587495	0.393431
0	H	0.127969	0.411756	0.659488
0	C	0.128044	0.862435	0.219516
0	C	0.856924	0.136905	0.833034
0	H	0.221301	0.848949	0.183492
0	H	0.763636	0.150366	0.869024
0	H	0.129416	0.920771	0.244365
0	H	0.855611	0.078579	0.808164
0	C	0.368692	0.854559	0.346825
0	C	0.615972	0.144944	0.706105
0	H	0.336638	0.849631	0.410168
0	H	0.648157	0.150173	0.642723
0	H	0.293196	0.841954	0.329134
0	H	0.69131	0.157514	0.723977
0	C	0.478596	0.780574	0.331197
0	C	0.505879	0.218725	0.721899
0	H	0.452932	0.709342	0.363223
0	H	0.531375	0.290043	0.690051
0	C	0.0408142	0.899753	0.166077
0	C	0.944106	0.0995663	0.886512
0	H	0.949634	0.919184	0.20238
0	H	0.0352931	0.08014	0.850219
0	H	0.0712241	0.965854	0.123313
0	H	0.913689	0.0334489	0.929239
0	C	0.704255	0.540515	0.490181
0	C	0.280257	0.458395	0.562555
0	H	0.670084	0.612814	0.496446
0	H	0.314199	0.386021	0.556415
0	C	0.815125	0.680624	0.049529
0	C	0.169518	0.318674	0.00325985
0	C	0.835227	0.709418	0.968538
0	C	0.149339	0.289889	0.0842521
0	H	0.807538	0.668287	0.939144
0	H	0.176928	0.331042	0.113679
0	C	0.754492	0.592869	0.0963934
0	C	0.230167	0.406418	0.956371
0	C	0.638588	0.517612	0.438986
0	C	0.346215	0.481352	0.613569
0	H	0.539808	0.52448	0.464422
0	H	0.444975	0.474318	0.588054
0	H	0.654177	0.568364	0.380728
0	H	0.330639	0.430711	0.671878
0	C	0.664501	0.346436	0.512036
0	C	0.320621	0.652432	0.540248
0	H	0.697031	0.274681	0.505775
0	H	0.288341	0.724262	0.546352
0	H	0.567241	0.347993	0.540558
0	H	0.417865	0.65068	0.511644
0	C	0.815954	0.531408	0.161422
0	C	0.168469	0.467928	0.891475
0	H	0.911061	0.508767	0.135918
0	H	0.0734141	0.490585	0.917096
0	H	0.817094	0.572321	0.201368
0	H	0.167101	0.427049	0.851562
0	C	0.730769	0.370283	0.562365
0	C	0.254034	0.628548	0.490122
0	H	0.715853	0.319186	0.621077
0	H	0.268926	0.679519	0.431345
0	C	0.798368	0.990411	0.412045
0	C	0.186477	0.00884428	0.640604
0	C	0.151841	0.684374	0.102928
0	C	0.83296	0.314901	0.949701
0	H	0.0655725	0.663929	0.10304
0	H	0.919209	0.335353	0.949612
0	H	0.223939	0.659654	0.0554732
0	H	0.760837	0.339584	0.997166
0	C	0.448351	0.960756	0.212894
0	C	0.536449	0.0382095	0.839786
0	H	0.37573	0.950567	0.191202
0	H	0.608989	0.0483205	0.861595
0	H	0.472165	0.0315842	0.180241
0	H	0.512779	0.967287	0.872213
0	C	0.404947	0.952807	0.301323
0	C	0.579928	0.0465651	0.751293
0	H	0.325824	0.00627918	0.312632
0	H	0.65915	0.993222	0.739835
0	C	0.681222	0.469743	0.5715
0	C	0.303248	0.528983	0.481148
0	H	0.724251	0.487219	0.609675
0	H	0.259962	0.511472	0.443127
0	H	0.583205	0.473842	0.599737
0	H	0.401221	0.524719	0.4528
0	C	0.0409349	0.794977	0.36145
0	C	0.943992	0.204379	0.691119
0	H	0.107055	0.82219	0.37871
0	H	0.877853	0.177159	0.673886
0	H	0.0225404	0.726408	0.405414
0	H	0.962389	0.272933	0.64713
0	C	0.93913	0.881545	0.0765524
0	C	0.0457079	0.117745	0.976097
0	H	0.973969	0.944635	0.0309188
0	H	0.0109149	0.0546033	0.0216715
0	H	0.855223	0.908815	0.11542
0	H	0.129655	0.0905626	0.937197
0	C	0.888602	0.790238	0.921676
0	C	0.096025	0.209024	0.131079
0	C	0.325086	0.276614	0.415505
0	C	0.6597	0.7224	0.636997
0	C	0.748276	0.446066	0.208737
0	C	0.236144	0.553248	0.844067
0	H	0.792569	0.403371	0.255867
0	H	0.191682	0.595975	0.797028
0	C	0.847614	0.739149	0.0848822
0	C	0.13711	0.26014	0.967885
0	C	0.905656	0.818451	0.0397129
0	C	0.0790868	0.180814	0.0130106
0	C	0.757517	0.530983	0.0427777
0	C	0.227487	0.468237	0.00996535
0	H	0.716521	0.572358	0.99442
0	H	0.268696	0.426811	0.0582099
0	H	0.85201	0.507333	0.0160593
0	H	0.133063	0.491894	0.0368232
0	C	0.621337	0.624692	0.134043
0	C	0.363219	0.374567	0.918546
0	H	0.619691	0.667549	0.17338
0	H	0.364615	0.331743	0.879241
0	H	0.576641	0.670283	0.0889446
0	H	0.408074	0.328924	0.963546
0	C	0.689693	0.445864	0.0899931
0	C	0.295291	0.55335	0.96265
0	H	0.692517	0.402879	0.0499653
0	H	0.292704	0.596308	0.0026489
0	C	0.141243	0.791997	0.0808533
0	C	0.843575	0.20728	0.971743
0	H	0.219883	0.813351	0.0901345
0	H	0.764972	0.185937	0.962415
0	H	0.148961	0.817658	0.0168439
0	H	0.835807	0.181593	0.0357569
0	C	0.900924	0.81588	0.833692
0	C	0.08367	0.183387	0.219069
0	C	0.557565	0.479512	0.12636
0	C	0.427317	0.519687	0.92608
0	H	0.507764	0.418978	0.159293
0	H	0.477097	0.580218	0.893057
0	H	0.512459	0.520801	0.0800776
0	H	0.472625	0.478361	0.972255
0	C	0.775305	0.0698465	0.451104
0	C	0.209462	0.929348	0.601635
0	C	0.616278	0.479469	0.245696
0	C	0.368035	0.519814	0.806925
0	H	0.612844	0.52057	0.286181
0	H	0.371216	0.478731	0.766483
0	H	0.567341	0.418511	0.281312
0	H	0.416963	0.580753	0.771226
0	C	0.676359	0.0465503	0.527842
0	C	0.308225	0.952609	0.524794
0	H	0.590094	0.0459797	0.516765
0	H	0.394487	0.95352	0.53572
0	H	0.661802	0.0979613	0.561279
0	H	0.322917	0.900979	0.491536
0	H	0.69991	0.977424	0.565196
0	H	0.284398	0.0215673	0.487313
0	C	0.355102	0.199838	0.371896
0	C	0.629506	0.799347	0.680446
0	H	0.273403	0.17252	0.375823
0	H	0.711081	0.827027	0.676227
0	H	0.416388	0.141206	0.39638
0	H	0.56784	0.857708	0.656038
0	H	0.397789	0.226588	0.30979
0	H	0.587174	0.772634	0.742613
0	C	0.279252	0.232335	0.503678
0	C	0.705545	0.766515	0.548792
0	H	0.256344	0.284873	0.53692
0	H	0.728824	0.713824	0.515679
0	H	0.34722	0.179033	0.526881
0	H	0.63742	0.819532	0.525488
0	H	0.199334	0.197667	0.517375
0	H	0.785222	0.801488	0.535042
0	C	0.554626	0.539025	0.180916
0	C	0.429936	0.460208	0.871572
0	H	0.458684	0.563388	0.207924
0	H	0.525796	0.435804	0.844443
0	C	0.75132	0.385886	0.15473
0	C	0.23342	0.613373	0.898049
0	H	0.705931	0.323356	0.188418
0	H	0.278788	0.6759	0.864298
0	H	0.845348	0.360059	0.128857
0	H	0.139451	0.639194	0.924046
0	C	0.439968	0.319176	0.403083
0	C	0.544921	0.679676	0.649483
0	H	0.482264	0.348869	0.340859
0	H	0.50243	0.650299	0.711727
0	H	0.507326	0.266529	0.427564
0	H	0.477642	0.732124	0.624745
0	H	0.420328	0.375587	0.431875
0	H	0.564754	0.622989	0.620976
0	C	0.732994	0.162017	0.396044
0	C	0.251951	0.837243	0.656697
0	H	0.798679	0.177066	0.339107
0	H	0.18623	0.822131	0.713614
0	H	0.721248	0.221405	0.42064
0	H	0.263913	0.777824	0.632122
0	H	0.647004	0.160003	0.385335
0	H	0.337854	0.839427	0.667439
0	C	0.953819	0.908273	0.789993
0	C	0.0311101	0.0908585	0.262737
0	H	0.0417899	0.907319	0.799353
0	H	0.943142	0.0916441	0.253453
0	H	0.894545	0.968815	0.806757
0	H	0.0905161	0.0304172	0.245884
0	H	0.968051	0.921362	0.726459
0	H	0.0169918	0.0777314	0.32626
0	C	0.775255	0.8257	0.81977
0	C	0.209261	0.17385	0.233023
0	H	0.779791	0.846568	0.757178
0	H	0.204636	0.15338	0.295622
0	H	0.712284	0.877978	0.846142
0	H	0.272296	0.121384	0.206921
0	H	0.736526	0.75967	0.844415
0	H	0.247975	0.239886	0.208114
0	C	0.88911	0.0841056	0.468926
0	C	0.0955716	0.914955	0.583999
0	H	0.920825	0.0235993	0.511896
0	H	0.0639153	0.975268	0.54086
0	H	0.872049	0.144897	0.492345
0	H	0.112505	0.85394	0.560875
0	H	0.962926	0.0971781	0.415367
0	H	0.0217355	0.902169	0.637577
0	C	0.983641	0.737239	0.8001
0	C	0.000617164	0.261895	0.252684
0	H	0.993416	0.75232	0.737188
0	H	0.991492	0.247145	0.315494
0	H	0.948376	0.669855	0.826931
0	H	0.0351872	0.329516	0.225469
0	H	0.0736783	0.72781	0.809276
0	H	0.910368	0.270633	0.244004
