#******************************************
#
# CIF file created by Zeo++
# Zeo++ is an open source package to
# analyze microporous materials
#
#*******************************************

_cell_length_a		13.4235(0)
_cell_length_b		13.5373(0)
_cell_length_c		14.9707(0)
_cell_angle_alpha		90(0)
_cell_angle_beta		90(0)
_cell_angle_gamma		120.962(0)

_symmetry_space_group_name_H-M		'P1'
_symmetry_Int_Tables_number		1
_symmetry_cell_setting		Monoclinic

loop_
_symmetry_equiv_pos_as_xyz
'+x,+y,+z'

loop_
_atom_site_label
_atom_site_type_symbol
_atom_site_fract_x
_atom_site_fract_y
_atom_site_fract_z
0	O	0.413454	0.179128	0.076889
0	O	0.894843	0.260216	0.744934
0	O	0.822137	0.656978	0.413301
0	O	0.672089	0.886914	0.576583
0	O	0.192262	0.804928	0.244041
0	O	0.261848	0.406866	0.915296
0	O	0.485628	0.247638	0.147915
0	O	0.825619	0.25937	0.816545
0	O	0.816204	0.586187	0.485187
0	O	0.600516	0.81813	0.64773
0	O	0.260541	0.804401	0.315878
0	O	0.267949	0.477654	0.987231
0	O	0.540958	0.753754	0.907732
0	O	0.32408	0.812412	0.573766
0	O	0.26575	0.536128	0.2428
0	O	0.544899	0.311277	0.407663
0	O	0.759739	0.254585	0.0720059
0	O	0.818573	0.529232	0.743228
0	O	0.544584	0.161768	0.989703
0	O	0.914431	0.41151	0.66075
0	O	0.668002	0.527048	0.327234
0	O	0.539359	0.903618	0.49071
0	O	0.171218	0.653668	0.15911
0	O	0.415429	0.537002	0.828843
0	H	0.619649	0.206257	0.0239023
0	H	0.870555	0.440893	0.695515
0	H	0.635932	0.452937	0.361893
0	H	0.464446	0.861131	0.525368
0	H	0.215229	0.624471	0.193913
0	H	0.448598	0.611359	0.863315
0	C	0.455663	0.175558	0.226665
0	C	0.897838	0.301962	0.895589
0	C	0.775842	0.618358	0.563476
0	C	0.630396	0.889941	0.726617
0	C	0.187658	0.762099	0.394623
0	C	0.308936	0.44577	0.0652833
0	H	0.364308	0.143263	0.245468
0	H	0.929938	0.243931	0.913456
0	H	0.838712	0.708899	0.581462
0	H	0.721799	0.922233	0.745343
0	H	0.155805	0.82054	0.412057
0	H	0.246498	0.3551	0.0832721
0	H	0.514104	0.238675	0.277563
0	H	0.833714	0.294215	0.94634
0	H	0.778221	0.56036	0.614895
0	H	0.572058	0.826598	0.777454
0	H	0.251022	0.76941	0.446041
0	H	0.306197	0.50347	0.11682
0	C	0.475444	0.0772365	0.209786
0	C	0.99738	0.423098	0.880608
0	C	0.657115	0.600707	0.546681
0	C	0.610285	0.988143	0.710104
0	C	0.0878408	0.641305	0.379099
0	C	0.427963	0.464307	0.0481556
0	C	0.473575	0.0428498	0.125199
0	C	0.0326831	0.458793	0.796476
0	C	0.623753	0.600724	0.461972
0	C	0.612093	0.0229449	0.625663
0	C	0.0528385	0.606562	0.294761
0	C	0.460703	0.463782	0.963317
0	C	0.487936	0.943415	0.0994514
0	C	0.133614	0.575334	0.771675
0	C	0.509125	0.587099	0.435822
0	C	0.597823	0.122536	0.600248
0	C	0.951417	0.490541	0.269719
0	C	0.575226	0.477488	0.936648
0	H	0.487972	0.896894	0.162383
0	H	0.179896	0.623026	0.835144
0	H	0.462223	0.588399	0.498523
0	H	0.598418	0.169157	0.663276
0	H	0.904847	0.442702	0.333072
0	H	0.62243	0.475921	0.999061
0	C	0.603521	0.986001	0.0549671
0	C	0.0930769	0.647958	0.726723
0	C	0.431635	0.471944	0.392509
0	C	0.481944	0.0803756	0.556406
0	C	0.991267	0.41741	0.224741
0	C	0.652538	0.592778	0.893468
0	H	0.673158	0.0723198	0.075163
0	H	0.00684898	0.630537	0.747071
0	H	0.445787	0.402266	0.413288
0	H	0.412016	0.994505	0.577257
0	H	0.0773308	0.434314	0.244931
0	H	0.638466	0.662367	0.914659
0	C	0.622508	0.923808	0.9948
0	C	0.157196	0.729868	0.666247
0	C	0.348738	0.453437	0.333027
0	C	0.462868	0.142409	0.49614
0	C	0.926422	0.3354	0.164575
0	C	0.73514	0.611525	0.83362
0	C	0.5264	0.808641	0.966213
0	C	0.271329	0.748482	0.636608
0	C	0.334348	0.549882	0.302555
0	C	0.559248	0.257072	0.466834
0	C	0.812822	0.318163	0.134943
0	C	0.749774	0.515314	0.802854
0	C	0.410379	0.760844	0.0116105
0	C	0.319618	0.685412	0.686116
0	C	0.406452	0.665186	0.347223
0	C	0.675211	0.305089	0.512396
0	C	0.765366	0.382056	0.18433
0	C	0.677581	0.399749	0.847181
0	H	0.339466	0.6956	0.968437
0	H	0.387714	0.682356	0.645827
0	H	0.414536	0.735436	0.30355
0	H	0.746137	0.370499	0.469289
0	H	0.697654	0.385724	0.144
0	H	0.669275	0.329745	0.803085
0	H	0.407693	0.709458	0.0706822
0	H	0.367741	0.736344	0.745993
0	H	0.357892	0.669114	0.406151
0	H	0.677738	0.356281	0.571521
0	H	0.716907	0.331317	0.244181
0	H	0.726154	0.395301	0.905858
0	C	0.384537	0.854325	0.0413609
0	C	0.223759	0.563651	0.714538
0	C	0.526845	0.689409	0.376839
0	C	0.700918	0.211396	0.54181
0	C	0.861825	0.503429	0.212891
0	C	0.557333	0.375469	0.877161
0	H	0.304573	0.81231	0.0848782
0	H	0.264	0.525491	0.758083
0	H	0.56798	0.769347	0.419577
0	H	0.781189	0.253158	0.585011
0	H	0.822074	0.541834	0.25671
0	H	0.516268	0.295291	0.919636
0	C	0.36151	0.911488	0.960558
0	C	0.167015	0.484324	0.632382
0	C	0.607225	0.709526	0.295857
0	C	0.723062	0.154222	0.460554
0	C	0.918967	0.582973	0.130923
0	C	0.476645	0.355728	0.796478
0	H	0.439096	0.94774	0.914669
0	H	0.132129	0.525922	0.586842
0	H	0.563113	0.631118	0.251455
0	H	0.645267	0.118414	0.414925
0	H	0.952998	0.540743	0.0851962
0	H	0.520071	0.434582	0.752505
0	C	0.346109	0.0119252	0.990381
0	C	0.0638435	0.36594	0.660162
0	C	0.724155	0.724604	0.326019
0	C	0.73798	0.0532564	0.489636
0	C	0.0231485	0.700824	0.158573
0	C	0.359632	0.339458	0.827746
0	H	0.338092	0.0565599	0.931271
0	H	0.0189324	0.31406	0.60019
0	H	0.777277	0.731088	0.26719
0	H	0.744465	0.0082083	0.430171
0	H	0.0683852	0.752028	0.0983957
0	H	0.305222	0.331954	0.769548
0	H	0.265043	0.979674	0.0294523
0	H	0.0943249	0.316401	0.698428
0	H	0.775611	0.80562	0.364247
0	H	0.819644	0.0851268	0.52786
0	H	0.993734	0.751524	0.196607
0	H	0.309542	0.258651	0.866488
0	C	0.449051	0.0986856	0.0474666
0	C	0.976702	0.378968	0.717649
0	C	0.704633	0.622874	0.384168
0	C	0.635819	0.966986	0.547595
0	C	0.109485	0.686648	0.216177
0	C	0.379274	0.441285	0.885824
0	C	0.48958	0.0221662	0.290666
0	C	0.052177	0.491478	0.96252
0	C	0.588046	0.589997	0.627451
0	C	0.595649	0.0424816	0.791236
0	C	0.0323785	0.572369	0.460684
0	C	0.497755	0.476112	0.128702
0	H	0.554382	0.0841225	0.338473
0	H	0.988791	0.484952	0.0129609
0	H	0.587752	0.530984	0.6786
0	H	0.530723	0.979988	0.838776
0	H	0.0951427	0.577108	0.510989
0	H	0.496979	0.53461	0.17995
0	H	0.514701	0.958434	0.275492
0	H	0.11128	0.583778	0.949597
0	H	0.496613	0.560255	0.61263
0	H	0.570203	0.106136	0.776386
0	H	0.972336	0.480364	0.447046
0	H	0.589573	0.507695	0.113696
0	H	0.40583	0.973881	0.327361
0	H	0.105975	0.461375	0.9955
0	H	0.623169	0.675448	0.659819
0	H	0.67925	0.0905251	0.828148
0	H	0.979454	0.603116	0.494115
0	H	0.4642	0.390949	0.16112
0	C	0.253107	0.824076	0.908922
0	C	0.255285	0.466847	0.580788
0	C	0.630036	0.81534	0.241941
0	C	0.831239	0.241726	0.408638
0	C	0.831235	0.601483	0.0795468
0	C	0.454132	0.250649	0.741659
0	H	0.238612	0.86306	0.849954
0	H	0.215171	0.409705	0.523227
0	H	0.688795	0.831331	0.185721
0	H	0.845774	0.202509	0.349829
0	H	0.871885	0.659592	0.0225735
0	H	0.394605	0.234671	0.686008
0	H	0.17486	0.788661	0.950607
0	H	0.293155	0.428542	0.623375
0	H	0.669523	0.893334	0.283332
0	H	0.909498	0.277793	0.450324
0	H	0.792825	0.639014	0.122367
0	H	0.415612	0.172244	0.782552
0	H	0.259812	0.750559	0.885329
0	H	0.327595	0.548653	0.555131
0	H	0.549446	0.804765	0.214113
0	H	0.823943	0.314755	0.384671
0	H	0.7592	0.520111	0.0529528
0	H	0.534684	0.262204	0.712955
0	C	0.738369	0.96767	0.952028
0	C	0.116708	0.80289	0.623699
0	C	0.269324	0.33753	0.293348
0	C	0.346651	0.0991899	0.454207
0	C	0.965478	0.260999	0.122432
0	C	0.813978	0.727526	0.793841
0	H	0.742301	0.899648	0.914807
0	H	0.181506	0.866137	0.577046
0	H	0.204444	0.338269	0.248775
0	H	0.344449	0.16602	0.413879
0	H	0.89906	0.196514	0.0772685
0	H	0.877074	0.726464	0.74743
0	H	0.808773	0.00267342	0.00137815
0	H	0.0986431	0.851127	0.67359
0	H	0.221731	0.272488	0.345138
0	H	0.277558	0.0696519	0.50444
0	H	0.984905	0.214111	0.172523
0	H	0.863657	0.792061	0.845443
0	H	0.757287	0.0371566	0.904034
0	H	0.0362901	0.749806	0.585232
0	H	0.31796	0.307899	0.25347
0	H	0.32421	0.0259414	0.409236
0	H	0.0446262	0.312763	0.0823075
0	H	0.764582	0.757971	0.755906
