#******************************************
#
# CIF file created by Zeo++
# Zeo++ is an open source package to
# analyze microporous materials
#
#*******************************************

_cell_length_a		18.5504(0)
_cell_length_b		18.5168(0)
_cell_length_c		9.95556(0)
_cell_angle_alpha		90(0)
_cell_angle_beta		90(0)
_cell_angle_gamma		119.978(0)

_symmetry_space_group_name_H-M		'P1'
_symmetry_Int_Tables_number		1
_symmetry_cell_setting		Monoclinic

loop_
_symmetry_equiv_pos_as_xyz
'+x,+y,+z'

loop_
_atom_site_label
_atom_site_type_symbol
_atom_site_fract_x
_atom_site_fract_y
_atom_site_fract_z
0	C	0.751896	0.217219	0.133952
0	C	0.784283	0.53647	0.467811
0	C	0.465305	0.249285	0.801666
0	C	0.247854	0.784811	0.6347
0	C	0.21692	0.466147	0.967676
0	C	0.535327	0.753828	0.301307
0	N	0.592077	0.0747787	0.0957884
0	N	0.926741	0.519266	0.42991
0	N	0.482564	0.409407	0.764168
0	N	0.40876	0.927899	0.595682
0	N	0.0739858	0.483845	0.927815
0	N	0.517498	0.592788	0.26134
0	N	0.304008	0.89933	0.0921461
0	N	0.104251	0.408636	0.425581
0	N	0.594362	0.697349	0.760475
0	N	0.68142	0.0746183	0.588219
0	N	0.928061	0.609546	0.923075
0	N	0.392814	0.319101	0.25375
0	C	0.741539	0.13024	0.121528
0	C	0.871006	0.613212	0.45565
0	C	0.388765	0.259579	0.789426
0	C	0.258524	0.871687	0.620471
0	C	0.130338	0.38981	0.953634
0	C	0.61145	0.743232	0.287229
0	C	0.660686	0.060632	0.0984123
0	C	0.94065	0.602057	0.432603
0	C	0.39996	0.340582	0.766671
0	C	0.339451	0.940776	0.596865
0	C	0.0612388	0.401567	0.929744
0	C	0.599692	0.662233	0.26341
0	C	0.650314	0.980951	0.0762643
0	C	0.0201359	0.671461	0.410744
0	C	0.33067	0.35081	0.744497
0	C	0.349576	0.0204526	0.573306
0	C	0.981764	0.331913	0.906459
0	C	0.66917	0.652139	0.240308
0	C	0.719626	0.970031	0.0781572
0	C	0.0307856	0.751718	0.412741
0	C	0.250555	0.281291	0.74619
0	C	0.280748	0.0316726	0.574783
0	C	0.970736	0.251825	0.908459
0	C	0.749155	0.721136	0.242311
0	C	0.798755	0.0373351	0.102719
0	C	0.96341	0.76344	0.437159
0	C	0.238809	0.202044	0.770469
0	C	0.201273	0.964285	0.599708
0	C	0.038141	0.239809	0.933645
0	C	0.761173	0.800691	0.267323
0	C	0.809012	0.116844	0.12392
0	C	0.884121	0.6941	0.458099
0	C	0.30801	0.191901	0.791589
0	C	0.190838	0.885067	0.622063
0	C	0.117162	0.308696	0.955674
0	C	0.692437	0.81107	0.28928
0	C	0.675443	0.210773	0.202936
0	C	0.790846	0.466344	0.536672
0	C	0.535248	0.325858	0.870695
0	C	0.324418	0.792321	0.705073
0	C	0.209162	0.535245	0.0378744
0	C	0.466259	0.676983	0.37129
0	C	0.596013	0.140638	0.177346
0	C	0.861013	0.457136	0.511169
0	C	0.544492	0.405412	0.845407
0	C	0.403838	0.862935	0.677472
0	C	0.138531	0.543935	0.00995738
0	C	0.457545	0.597465	0.3435
0	C	0.523514	0.136572	0.228723
0	C	0.865272	0.388652	0.562408
0	C	0.613017	0.478032	0.89655
0	C	0.476238	0.866987	0.731457
0	C	0.134137	0.612264	0.0638361
0	C	0.389373	0.524869	0.397433
0	C	0.530265	0.201442	0.309545
0	C	0.800441	0.330293	0.642808
0	C	0.671316	0.471299	0.976602
0	C	0.469588	0.803305	0.813991
0	C	0.197483	0.669362	0.146534
0	C	0.332479	0.531363	0.480331
0	C	0.60819	0.269434	0.339289
0	C	0.732354	0.340089	0.672387
0	C	0.661407	0.393222	0.00605862
0	C	0.391691	0.734943	0.844234
0	C	0.26591	0.65999	0.177033
0	C	0.341804	0.609266	0.510579
0	C	0.680015	0.273974	0.285487
0	C	0.727722	0.407535	0.618891
0	C	0.59399	0.321271	0.952706
0	C	0.319994	0.729734	0.788707
0	C	0.271447	0.593516	0.121601
0	C	0.40812	0.681211	0.454936
0	C	0.513681	0.0149087	0.0304427
0	C	0.986228	0.50072	0.363307
0	C	0.500778	0.488236	0.700076
0	C	0.491413	0.993764	0.54213
0	C	0.00756201	0.500174	0.875461
0	C	0.500894	0.510169	0.207345
0	C	0.45334	0.941209	0.122553
0	C	0.0604423	0.514833	0.454544
0	C	0.486628	0.547959	0.792543
0	C	0.54664	0.0657416	0.64176
0	C	0.936035	0.48299	0.976229
0	C	0.518139	0.454846	0.30604
0	C	0.371506	0.897845	0.0535779
0	C	0.104168	0.476661	0.38561
0	C	0.524485	0.629962	0.723673
0	C	0.630859	0.113105	0.586857
0	C	0.888587	0.520277	0.923236
0	C	0.481549	0.370515	0.250769
0	C	0.295537	0.931607	0.225218
0	C	0.0717632	0.3678	0.558555
0	C	0.635293	0.706303	0.893395
0	C	0.709458	0.0700154	0.729654
0	C	0.933029	0.642854	0.0641886
0	C	0.360722	0.292183	0.395667
0	C	0.255915	0.986861	0.214084
0	C	0.0161035	0.27298	0.546685
0	C	0.730066	0.746213	0.882323
0	C	0.754385	0.0191521	0.727118
0	C	0.98357	0.738675	0.0609814
0	C	0.265039	0.247321	0.393745
0	C	0.17661	0.946105	0.12905
0	C	0.0564267	0.233983	0.461346
0	C	0.768366	0.825461	0.796694
0	C	0.83029	0.0592192	0.633425
0	C	0.943041	0.774101	0.967313
0	C	0.228686	0.170803	0.301025
0	C	0.194962	0.92356	0.990251
0	C	0.0800041	0.275559	0.323084
0	C	0.727394	0.806706	0.657985
0	C	0.805272	0.074128	0.493562
0	C	0.928364	0.734049	0.827528
0	C	0.268366	0.194994	0.160891
0	C	0.229331	0.863773	0.00241578
0	C	0.140321	0.369512	0.336731
0	C	0.633262	0.771753	0.669898
0	C	0.757434	0.122271	0.502056
0	C	0.880707	0.638026	0.836264
0	C	0.364214	0.242304	0.169197
0	C	0.832228	0.276803	0.210227
0	C	0.724585	0.557107	0.544002
0	C	0.444604	0.168753	0.877638
0	C	0.167211	0.724912	0.709056
0	C	0.276922	0.445557	0.0422297
0	C	0.555963	0.834478	0.376012
0	C	0.756263	0.250846	0.990541
0	C	0.750978	0.50732	0.324241
0	C	0.494558	0.2451	0.658182
0	C	0.244447	0.750521	0.491481
0	C	0.251125	0.496947	0.82446
0	C	0.504632	0.75743	0.158096
0	H	0.761349	0.312602	0.99212
0	H	0.689473	0.450566	0.325531
0	H	0.55101	0.239787	0.659781
0	H	0.24077	0.689664	0.494986
0	H	0.311987	0.55397	0.82788
0	H	0.44772	0.761419	0.161531
0	H	0.809934	0.256894	0.935043
0	H	0.744895	0.555002	0.268725
0	H	0.446932	0.191515	0.602393
0	H	0.190155	0.743535	0.436471
0	H	0.257914	0.449454	0.7694
0	H	0.552063	0.811708	0.10304
0	H	0.70051	0.209474	0.93184
0	H	0.792543	0.493091	0.265656
0	H	0.509254	0.301151	0.599866
0	H	0.300491	0.792369	0.434376
0	H	0.209457	0.511479	0.767486
0	H	0.490161	0.701222	0.100975
0	H	0.839609	0.339414	0.21688
0	H	0.66219	0.501822	0.550764
0	H	0.499753	0.161374	0.884062
0	H	0.158535	0.661995	0.717173
0	H	0.339659	0.499889	0.0500353
0	H	0.50174	0.843022	0.384263
0	H	0.887357	0.283549	0.158471
0	H	0.71764	0.60546	0.49227
0	H	0.396203	0.113517	0.825837
0	H	0.111596	0.717868	0.657267
0	H	0.284039	0.396886	0.990649
0	H	0.604452	0.890314	0.324346
0	H	0.831048	0.254772	0.312833
0	H	0.746531	0.578026	0.646628
0	H	0.423864	0.1698	0.980355
0	H	0.165409	0.745739	0.811299
0	H	0.256165	0.423123	0.144565
0	H	0.578553	0.836192	0.478214
0	H	0.589013	0.927342	0.0585169
0	H	0.0737749	0.663799	0.393105
0	H	0.338317	0.412205	0.726963
0	H	0.411832	0.0742496	0.557034
0	H	0.927974	0.340348	0.890048
0	H	0.660732	0.589829	0.223911
0	H	0.462414	0.0841868	0.20745
0	H	0.917751	0.380071	0.541347
0	H	0.621691	0.539223	0.875486
0	H	0.537703	0.920579	0.708257
0	H	0.0804468	0.619994	0.0404611
0	H	0.381664	0.463408	0.374349
0	H	0.711326	0.908246	0.0607958
0	H	0.0923855	0.805281	0.395547
0	H	0.197124	0.289524	0.728925
0	H	0.289313	0.0937967	0.557327
0	H	0.908771	0.198186	0.891231
0	H	0.802664	0.712605	0.225113
0	H	0.474327	0.19943	0.348769
0	H	0.802504	0.276244	0.681851
0	H	0.725441	0.527331	0.0153699
0	H	0.525675	0.807414	0.856233
0	H	0.193056	0.721263	0.188773
0	H	0.280836	0.47511	0.522972
0	H	0.613049	0.31949	0.403342
0	H	0.682312	0.294662	0.735986
0	H	0.706857	0.388443	0.0694049
0	H	0.386226	0.685696	0.910324
0	H	0.314912	0.703829	0.243163
0	H	0.298197	0.614643	0.57699
0	H	0.852506	0.0287718	0.104961
0	H	0.971741	0.825747	0.439514
0	H	0.176607	0.148114	0.772582
0	H	0.147721	0.973267	0.601623
0	H	0.0293269	0.177254	0.935938
0	H	0.823637	0.854391	0.269563
0	H	0.871581	0.169113	0.141272
0	H	0.831784	0.704326	0.475329
0	H	0.297755	0.129221	0.808736
0	H	0.128137	0.832717	0.639913
0	H	0.169509	0.298368	0.973695
0	H	0.702768	0.873857	0.307279
0	H	0.740329	0.328445	0.308867
0	H	0.673249	0.413343	0.642267
0	H	0.588146	0.260844	0.975864
0	H	0.25967	0.675118	0.811877
0	H	0.326107	0.587943	0.144912
0	H	0.413736	0.741559	0.478204
0	H	0.482103	0.0493957	0.994884
0	H	0.951928	0.434487	0.328392
0	H	0.566908	0.520467	0.665098
0	H	0.526891	0.962737	0.510818
0	H	0.0379699	0.566742	0.844284
0	H	0.434465	0.474478	0.176258
0	H	0.527794	0.989856	0.93795
0	H	0.0104407	0.539603	0.2703
0	H	0.461905	0.474297	0.607384
0	H	0.480564	0.0204365	0.449964
0	H	0.980738	0.462649	0.783387
0	H	0.538286	0.521411	0.11492
0	H	0.47863	0.898562	0.13942
0	H	0.102582	0.582954	0.470848
0	H	0.41871	0.521986	0.809373
0	H	0.518826	0.105938	0.656131
0	H	0.895981	0.41488	0.989886
0	H	0.586154	0.482963	0.319863
0	H	0.451637	0.964971	0.224678
0	H	0.0372005	0.489581	0.556958
0	H	0.512182	0.549865	0.894589
0	H	0.545588	0.0382381	0.74127
0	H	0.963929	0.508945	0.0757371
0	H	0.491961	0.455489	0.405899
0	H	0.370231	0.866068	0.958097
0	H	0.135165	0.506762	0.289419
0	H	0.49317	0.631393	0.629437
0	H	0.648641	0.168356	0.530549
0	H	0.832449	0.482912	0.869315
0	H	0.518913	0.353406	0.192618
0	H	0.256459	0.876633	0.290956
0	H	0.126472	0.383149	0.624445
0	H	0.619427	0.745593	0.958801
0	H	0.749716	0.132097	0.774989
0	H	0.871154	0.621097	0.109904
0	H	0.382468	0.252033	0.441763
0	H	0.357643	0.967011	0.275774
0	H	0.0366643	0.394874	0.609216
0	H	0.608735	0.644279	0.944419
0	H	0.653142	0.0387104	0.793547
0	H	0.964587	0.618032	0.128009
0	H	0.386049	0.349032	0.45857
0	H	0.30109	0.0489145	0.172257
0	H	0.954325	0.256746	0.504663
0	H	0.747093	0.701022	0.840897
0	H	0.710249	0.955407	0.691631
0	H	0.0471708	0.758343	0.0252221
0	H	0.245538	0.291469	0.357828
0	H	0.241927	0.999648	0.317268
0	H	0.00297591	0.245853	0.649667
0	H	0.756833	0.76063	0.985483
0	H	0.773346	0.013569	0.829979
0	H	0.989242	0.763475	0.163666
0	H	0.24079	0.22886	0.496864
0	H	0.151232	0.988826	0.119304
0	H	0.0131291	0.166053	0.450585
0	H	0.836356	0.850871	0.786805
0	H	0.85841	0.019042	0.625727
0	H	0.982616	0.842466	0.959475
0	H	0.160534	0.142917	0.293537
0	H	0.127162	0.889631	0.179622
0	H	0.112276	0.239865	0.512393
0	H	0.761387	0.875114	0.84702
0	H	0.878504	0.118965	0.676921
0	H	0.883227	0.76214	0.0108601
0	H	0.239912	0.122526	0.345231
0	H	0.239225	0.980771	0.934815
0	H	0.0233964	0.263662	0.267016
0	H	0.74064	0.762576	0.602806
0	H	0.764748	0.0135769	0.443758
0	H	0.988876	0.754345	0.777655
0	H	0.248837	0.235762	0.110516
0	H	0.137615	0.893484	0.927789
0	H	0.109777	0.247944	0.260571
0	H	0.754379	0.86409	0.595405
0	H	0.860543	0.107977	0.428862
0	H	0.894187	0.755154	0.762856
0	H	0.246383	0.139285	0.0968009
0	H	0.24549	0.850605	0.900229
0	H	0.154905	0.399502	0.234961
0	H	0.604121	0.754849	0.567707
0	H	0.736308	0.128071	0.400115
0	H	0.875436	0.611071	0.734417
0	H	0.39119	0.26251	0.0670384
0	H	0.180771	0.802404	0.0441633
0	H	0.200951	0.381457	0.380279
0	H	0.620122	0.82035	0.710603
0	H	0.79938	0.186566	0.539186
0	H	0.816403	0.615581	0.872521
0	H	0.386103	0.2003	0.207835
