#******************************************
#
# CIF file created by Zeo++
# Zeo++ is an open source package to
# analyze microporous materials
#
#*******************************************

_cell_length_a		8.63855(0)
_cell_length_b		26.2486(0)
_cell_length_c		32.1641(0)
_cell_angle_alpha		90(0)
_cell_angle_beta		90(0)
_cell_angle_gamma		90(0)

_symmetry_space_group_name_H-M		'P1'
_symmetry_Int_Tables_number		1
_symmetry_cell_setting		Monoclinic

loop_
_symmetry_equiv_pos_as_xyz
'+x,+y,+z'

loop_
_atom_site_label
_atom_site_type_symbol
_atom_site_fract_x
_atom_site_fract_y
_atom_site_fract_z
0	C	0.817444	0.109507	0.730782
0	C	0.705996	0.882006	0.232877
0	C	0.209643	0.610326	0.77146
0	C	0.316176	0.381789	0.273524
0	C	0.760484	0.115787	0.686279
0	C	0.766014	0.874202	0.188826
0	C	0.269411	0.617737	0.815582
0	C	0.259532	0.375276	0.318036
0	H	0.819986	0.0900854	0.664611
0	H	0.709365	0.899624	0.166387
0	H	0.212005	0.592346	0.837912
0	H	0.319228	0.400884	0.339772
0	H	0.779717	0.154718	0.674845
0	H	0.745547	0.835071	0.178002
0	H	0.249904	0.656894	0.826482
0	H	0.278942	0.336261	0.329286
0	H	0.636117	0.107844	0.68363
0	H	0.890945	0.881421	0.186721
0	H	0.394153	0.610148	0.817736
0	H	0.135133	0.38317	0.320787
0	C	0.752238	0.149167	0.760329
0	C	0.767863	0.843148	0.263624
0	C	0.27417	0.648834	0.740813
0	C	0.249746	0.342621	0.243729
0	H	0.770273	0.13803	0.792989
0	H	0.739649	0.853918	0.295854
0	H	0.24838	0.637815	0.708495
0	H	0.269365	0.353756	0.211126
0	H	0.627	0.154571	0.756203
0	H	0.894522	0.839648	0.262025
0	H	0.400754	0.652202	0.743147
0	H	0.124094	0.337976	0.247575
0	H	0.808834	0.186152	0.755897
0	H	0.717853	0.80537	0.258109
0	H	0.224213	0.686737	0.745789
0	H	0.304043	0.305263	0.248164
0	C	0.991647	0.10328	0.734154
0	C	0.531746	0.888958	0.235103
0	C	0.0351208	0.604371	0.769017
0	C	0.490539	0.387532	0.27013
0	H	0.0294879	0.101658	0.766847
0	H	0.491199	0.891428	0.26752
0	H	0.994961	0.602187	0.736556
0	H	0.528231	0.389507	0.237441
0	H	0.0530106	0.13533	0.719728
0	H	0.470446	0.856858	0.220707
0	H	0.9753	0.636791	0.78337
0	H	0.550957	0.355053	0.2842
0	H	0.0308955	0.0678328	0.719386
0	H	0.495152	0.924254	0.21959
0	H	0.996278	0.569292	0.784454
0	H	0.530997	0.422616	0.285233
0	O	0.744089	0.0589086	0.741369
0	O	0.779838	0.932776	0.242814
0	O	0.281267	0.559219	0.761603
0	O	0.244039	0.432671	0.263255
0	C	0.779299	0.0356506	0.778179
0	C	0.744412	0.956571	0.279372
0	C	0.245497	0.535629	0.725001
0	C	0.27881	0.455877	0.226401
0	N	0.715748	0.987056	0.777995
0	N	0.806744	0.00528527	0.278789
0	N	0.30771	0.486893	0.725522
0	N	0.215253	0.504466	0.226568
0	H	0.681322	0.971472	0.749656
0	H	0.841457	0.0206101	0.250368
0	H	0.341594	0.471478	0.753977
0	H	0.181188	0.520177	0.254896
0	C	0.734514	0.950778	0.81297
0	C	0.788637	0.0417099	0.313689
0	C	0.2887	0.450522	0.690636
0	C	0.234605	0.540607	0.191531
0	H	0.644611	0.960791	0.837195
0	H	0.87851	0.0316795	0.33792
0	H	0.378213	0.460514	0.666302
0	H	0.144563	0.530601	0.167338
0	C	0.892184	0.954007	0.835505
0	C	0.631153	0.0386359	0.336397
0	C	0.130856	0.453838	0.668159
0	C	0.392312	0.537066	0.169022
0	N	0.0258969	0.957413	0.812142
0	N	0.497206	0.0349024	0.313192
0	N	0.997198	0.457626	0.691482
0	N	0.52607	0.533601	0.192374
0	H	0.0235007	0.957317	0.779947
0	H	0.499361	0.0350567	0.28102
0	H	0.999501	0.457502	0.723659
0	H	0.523765	0.533824	0.224558
0	C	0.181736	0.95458	0.831866
0	C	0.341313	0.0368457	0.332935
0	C	0.841246	0.455843	0.67175
0	C	0.681822	0.536331	0.172618
0	C	0.194627	0.994673	0.867684
0	C	0.330731	0.997011	0.368988
0	C	0.831101	0.495599	0.635628
0	C	0.694207	0.496456	0.136652
0	N	0.117597	0.0403025	0.861775
0	N	0.407802	0.95144	0.362831
0	N	0.908789	0.541063	0.641675
0	N	0.61738	0.450781	0.142558
0	H	0.0320302	0.0433957	0.838924
0	H	0.492771	0.948581	0.339797
0	H	0.994042	0.54388	0.664614
0	H	0.531526	0.447692	0.165294
0	C	0.1182	0.0818159	0.892962
0	C	0.409608	0.909944	0.39403
0	C	0.910186	0.582519	0.610464
0	C	0.618245	0.409327	0.111339
0	H	0.237318	0.099636	0.89322
0	H	0.291155	0.891634	0.394497
0	H	0.791668	0.600795	0.610096
0	H	0.737449	0.391562	0.110992
0	C	0.088064	0.0625983	0.937675
0	C	0.440318	0.929267	0.438687
0	C	0.940594	0.563312	0.565757
0	C	0.587418	0.428422	0.0666427
0	N	0.97231	0.0270656	0.944105
0	N	0.555881	0.964939	0.444913
0	N	0.0556211	0.527469	0.559535
0	N	0.472213	0.464149	0.0602984
0	H	0.924642	0.0073813	0.919214
0	H	0.602003	0.984806	0.419921
0	H	0.102275	0.507767	0.584552
0	H	0.424614	0.483822	0.0851975
0	C	0.937447	0.00697505	0.986232
0	C	0.591097	0.985226	0.48696
0	C	0.090899	0.507077	0.517537
0	C	0.437242	0.484175	0.0181721
0	H	0.897829	0.0399408	0.00614377
0	H	0.631234	0.952389	0.506982
0	H	0.131273	0.539816	0.497463
0	H	0.398495	0.451138	0.998231
0	C	0.081737	0.984456	0.00834363
0	C	0.446537	0.0075372	0.509086
0	C	0.946424	0.484681	0.495395
0	C	0.581227	0.50694	0.996113
0	N	0.181861	0.955591	0.984321
0	N	0.34708	0.0368917	0.485238
0	N	0.846658	0.45557	0.519349
0	N	0.680665	0.536052	0.0201313
0	H	0.172449	0.955604	0.952241
0	H	0.357568	0.0375792	0.45321
0	H	0.856833	0.455212	0.551398
0	H	0.670671	0.536178	0.0521954
0	C	0.328954	0.93495	0.00105953
0	C	0.199062	0.0568993	0.50192
0	C	0.698648	0.435386	0.502805
0	C	0.828227	0.556575	0.00358233
0	H	0.301464	0.91023	0.0287657
0	H	0.225522	0.0817683	0.529627
0	H	0.724771	0.410636	0.475007
0	H	0.801307	0.581692	0.976086
0	C	0.437155	0.977749	0.0170748
0	C	0.0920353	0.0137646	0.51797
0	C	0.590929	0.478457	0.487002
0	C	0.935704	0.513737	0.987277
0	N	0.451761	0.0208114	0.992449
0	N	0.0771987	0.970932	0.493083
0	N	0.577485	0.521489	0.511691
0	N	0.950302	0.470541	0.0117466
0	H	0.381711	0.0262399	0.966849
0	H	0.146927	0.96582	0.467359
0	H	0.647395	0.526643	0.537367
0	H	0.880951	0.465171	0.0374903
0	C	0.5398	0.0658494	0.00706649
0	C	0.988296	0.925863	0.507273
0	C	0.488755	0.566559	0.497448
0	C	0.0375859	0.425464	0.996878
0	H	0.660993	0.0532519	0.0153561
0	H	0.86709	0.938514	0.51547
0	H	0.367285	0.553947	0.489483
0	H	0.158796	0.437921	0.988565
0	C	0.468349	0.0872832	0.0477418
0	C	0.058392	0.903962	0.547969
0	C	0.558347	0.588082	0.456557
0	C	0.965621	0.404361	0.956176
0	N	0.31395	0.100344	0.046802
0	N	0.21264	0.890701	0.547297
0	N	0.712572	0.601359	0.457017
0	N	0.811203	0.391338	0.957112
0	H	0.249786	0.0952645	0.0198859
0	H	0.277678	0.895954	0.520558
0	H	0.777896	0.596415	0.483737
0	H	0.747018	0.39619	0.984048
0	C	0.229028	0.123162	0.0826421
0	C	0.296785	0.868209	0.583424
0	C	0.796262	0.623537	0.420698
0	C	0.726462	0.368939	0.921075
0	C	0.269747	0.0946947	0.123941
0	C	0.254348	0.896822	0.624515
0	C	0.753755	0.594432	0.379852
0	C	0.768694	0.397445	0.879917
0	N	0.263054	0.041857	0.122929
0	N	0.261721	0.949641	0.623339
0	N	0.76122	0.541626	0.381362
0	N	0.763042	0.450298	0.881009
0	H	0.239602	0.02239	0.095838
0	H	0.285499	0.969034	0.596229
0	H	0.785642	0.522528	0.408574
0	H	0.740333	0.469752	0.908141
0	C	0.287831	0.011461	0.161063
0	C	0.235809	0.980186	0.661337
0	C	0.73552	0.51079	0.343499
0	C	0.78906	0.480646	0.842911
0	H	0.220408	0.0298782	0.187393
0	H	0.303055	0.962021	0.687837
0	H	0.803073	0.528646	0.316907
0	H	0.722449	0.462142	0.816435
0	C	0.459218	0.011872	0.175381
0	C	0.0642058	0.979499	0.675415
0	C	0.563989	0.511569	0.329299
0	C	0.9607	0.480241	0.828819
0	N	0.573534	0.00551786	0.145734
0	N	0.95054	0.985326	0.645516
0	N	0.449911	0.505951	0.359116
0	N	0.0747995	0.485898	0.858624
0	H	0.548602	0.00726282	0.114316
0	H	0.975908	0.98354	0.614111
0	H	0.475168	0.508039	0.390491
0	H	0.0498047	0.483618	0.890022
0	C	0.739102	0.00668888	0.157775
0	C	0.784988	0.984093	0.657477
0	C	0.284348	0.507418	0.347152
0	C	0.240302	0.484772	0.846523
0	H	0.755991	0.978948	0.184621
0	H	0.768193	0.011732	0.684394
0	H	0.267123	0.479642	0.320357
0	H	0.256808	0.512547	0.819697
0	C	0.790914	0.0594605	0.174488
0	C	0.733168	0.931318	0.674196
0	C	0.233128	0.560195	0.330312
0	C	0.291998	0.432015	0.829711
0	N	0.728258	0.102484	0.155634
0	N	0.796555	0.888274	0.655505
0	N	0.296281	0.603266	0.349023
0	N	0.230138	0.388993	0.848793
0	H	0.642466	0.0981154	0.133153
0	H	0.88253	0.8927	0.633059
0	H	0.382452	0.598853	0.371416
0	H	0.144532	0.393399	0.871327
0	C	0.750724	0.153723	0.169806
0	C	0.774106	0.836985	0.669482
0	C	0.274069	0.654501	0.334897
0	C	0.252189	0.337731	0.834619
0	C	0.893803	0.170168	0.185682
0	C	0.632776	0.820702	0.686558
0	C	0.132867	0.670749	0.317723
0	C	0.394922	0.321232	0.818567
0	H	0.98875	0.142963	0.190359
0	H	0.539415	0.84812	0.692382
0	H	0.0392634	0.64337	0.311918
0	H	0.48987	0.34841	0.813729
0	C	0.913435	0.221519	0.19584
0	C	0.612668	0.769257	0.696351
0	C	0.113237	0.722146	0.307712
0	C	0.41435	0.269871	0.808423
0	H	0.0246937	0.234409	0.208105
0	H	0.502733	0.756551	0.709553
0	H	0.0034896	0.734827	0.294365
0	H	0.525318	0.25695	0.796005
0	C	0.791151	0.25535	0.190122
0	C	0.732874	0.735093	0.689018
0	C	0.233589	0.756291	0.31494
0	C	0.292205	0.236045	0.814337
0	C	0.646632	0.239064	0.176005
0	C	0.876048	0.75114	0.673758
0	C	0.376583	0.740236	0.330309
0	C	0.147969	0.252378	0.828622
0	H	0.550115	0.265601	0.17304
0	H	0.971124	0.724277	0.669523
0	H	0.471883	0.767016	0.334422
0	H	0.0515267	0.225849	0.831708
0	C	0.625472	0.187931	0.165825
0	C	0.897632	0.80237	0.664019
0	C	0.397808	0.689052	0.340265
0	C	0.127014	0.303528	0.838796
0	H	0.511638	0.174046	0.155644
0	H	0.0105931	0.81605	0.653021
0	H	0.510651	0.675336	0.351321
0	H	0.0133607	0.317414	0.849108
0	I	0.827442	0.333801	0.201998
0	I	0.696077	0.656453	0.699976
0	I	0.19683	0.834839	0.303554
0	I	0.32882	0.157598	0.802488
0	O	0.847819	0.0564129	0.807027
0	O	0.676309	0.936072	0.308434
0	O	0.177524	0.556261	0.695979
0	O	0.346932	0.435091	0.19749
0	C	0.711315	0.896267	0.797906
0	C	0.812864	0.0960067	0.298278
0	C	0.312626	0.39615	0.705894
0	C	0.211991	0.595188	0.206494
0	H	0.591485	0.889584	0.787457
0	H	0.933018	0.102396	0.287979
0	H	0.432853	0.389625	0.716093
0	H	0.0924594	0.601996	0.217159
0	H	0.735971	0.868293	0.822613
0	H	0.7881	0.124304	0.322671
0	H	0.287186	0.367966	0.681432
0	H	0.23618	0.623047	0.181657
0	H	0.785987	0.886615	0.77128
0	H	0.739077	0.105443	0.271418
0	H	0.239088	0.386714	0.732797
0	H	0.287551	0.604879	0.232946
0	O	0.895356	0.953206	0.873831
0	O	0.628404	0.039591	0.374714
0	O	0.127569	0.453069	0.629834
0	O	0.3955	0.537677	0.130696
0	C	0.208865	0.900879	0.850122
0	C	0.309873	0.0905068	0.35073
0	C	0.809367	0.402177	0.654026
0	C	0.709767	0.590146	0.154682
0	H	0.314865	0.90107	0.869747
0	H	0.202218	0.0897531	0.369681
0	H	0.701629	0.402978	0.635096
0	H	0.815825	0.589949	0.135084
0	H	0.11222	0.890519	0.871943
0	H	0.404205	0.101522	0.373077
0	H	0.9036	0.391041	0.631676
0	H	0.613226	0.600746	0.132876
0	C	0.223731	0.861908	0.816397
0	C	0.295561	0.129181	0.316779
0	C	0.794587	0.363587	0.688022
0	C	0.724955	0.62892	0.188548
0	C	0.181846	0.810632	0.823669
0	C	0.335456	0.180728	0.323663
0	C	0.834353	0.311997	0.681329
0	C	0.683552	0.680316	0.181616
0	C	0.191524	0.772777	0.793049
0	C	0.323944	0.21808	0.292655
0	C	0.820998	0.274697	0.712335
0	C	0.693942	0.717851	0.212497
0	H	0.156399	0.733866	0.799945
0	H	0.356958	0.257296	0.299176
0	H	0.853666	0.235416	0.705934
0	H	0.658771	0.756827	0.205909
0	C	0.242565	0.78687	0.753494
0	C	0.273861	0.203207	0.253205
0	C	0.769268	0.289656	0.751613
0	C	0.745727	0.703374	0.251885
0	H	0.247595	0.758273	0.728896
0	H	0.267091	0.231368	0.228327
0	H	0.760624	0.26154	0.776473
0	H	0.751589	0.731652	0.276687
0	C	0.284552	0.837047	0.745206
0	C	0.234833	0.152685	0.245277
0	C	0.730686	0.340253	0.759371
0	C	0.787487	0.653086	0.259788
0	H	0.320057	0.8479	0.713684
0	H	0.200108	0.141231	0.213821
0	H	0.694332	0.351761	0.790696
0	H	0.824067	0.641938	0.291149
0	C	0.275594	0.874626	0.776304
0	C	0.245314	0.115598	0.276703
0	C	0.743187	0.377294	0.727968
0	C	0.777182	0.615774	0.228522
0	C	0.317415	0.928188	0.764482
0	C	0.20769	0.0615893	0.265114
0	C	0.706077	0.43138	0.739437
0	C	0.817707	0.562001	0.24007
0	H	0.43641	0.928643	0.750796
0	H	0.0904072	0.060029	0.250497
0	H	0.588323	0.433108	0.753794
0	H	0.936203	0.561123	0.254028
0	H	0.239826	0.940067	0.738194
0	H	0.289131	0.0499194	0.239591
0	H	0.786869	0.442928	0.765151
0	H	0.738975	0.550052	0.266096
0	C	0.307676	0.967519	0.799492
0	C	0.216437	0.0228208	0.300551
0	C	0.716467	0.470183	0.704062
0	C	0.808023	0.523008	0.204816
0	H	0.286924	0.00579738	0.78593
0	H	0.238341	0.98434	0.287531
0	H	0.73941	0.508532	0.717164
0	H	0.787744	0.48458	0.218094
0	H	0.420892	0.970122	0.81572
0	H	0.102812	0.0202952	0.316556
0	H	0.603033	0.473136	0.688007
0	H	0.921095	0.520717	0.188486
0	O	0.129374	0.797424	0.861587
0	O	0.387679	0.194917	0.361391
0	O	0.888111	0.297668	0.643785
0	O	0.630929	0.69407	0.143842
0	Si	0.0297439	0.759615	0.892943
0	Si	0.488187	0.231904	0.393148
0	Si	0.988823	0.260861	0.612008
0	Si	0.53126	0.731258	0.112113
0	C	0.859986	0.735893	0.862561
0	C	0.659422	0.255779	0.363476
0	C	0.159651	0.236662	0.64167
0	C	0.360851	0.755302	0.142037
0	C	0.750147	0.771066	0.847738
0	C	0.772702	0.220832	0.350257
0	C	0.272632	0.271455	0.655337
0	C	0.250296	0.720278	0.156699
0	H	0.760719	0.811774	0.855075
0	H	0.763538	0.180342	0.358521
0	H	0.262797	0.312138	0.647755
0	H	0.260837	0.679516	0.149518
0	C	0.626248	0.755157	0.822936
0	C	0.898352	0.236756	0.326105
0	C	0.398818	0.255141	0.679108
0	C	0.125548	0.736423	0.181096
0	H	0.542046	0.782777	0.811565
0	H	0.984956	0.209302	0.315816
0	H	0.485316	0.28247	0.689681
0	H	0.0408659	0.708915	0.192404
0	C	0.611017	0.703762	0.812309
0	C	0.912446	0.287969	0.31475
0	C	0.41359	0.20371	0.689702
0	C	0.109994	0.787908	0.19141
0	H	0.515362	0.691422	0.792603
0	H	0.00953552	0.300332	0.295545
0	H	0.511135	0.191032	0.708603
0	H	0.0135331	0.800438	0.21075
0	C	0.719326	0.668433	0.82678
0	C	0.801201	0.3231	0.327862
0	C	0.3024	0.168759	0.676248
0	C	0.218976	0.823091	0.177061
0	H	0.708203	0.628411	0.818231
0	H	0.811791	0.363025	0.318911
0	H	0.313404	0.128693	0.684674
0	H	0.20761	0.863182	0.18536
0	C	0.843021	0.684352	0.851727
0	C	0.675322	0.307143	0.351993
0	C	0.176095	0.185093	0.652452
0	C	0.343603	0.806932	0.152558
0	H	0.926815	0.655928	0.862253
0	H	0.589147	0.335379	0.361433
0	H	0.0900373	0.156961	0.642744
0	H	0.427854	0.83525	0.142106
0	C	0.970384	0.800391	0.939627
0	C	0.548502	0.190698	0.439571
0	C	0.0504783	0.302124	0.56575
0	C	0.472372	0.689851	0.065732
0	C	0.112973	0.811233	0.967068
0	C	0.409277	0.183124	0.468884
0	C	0.911907	0.309809	0.536225
0	C	0.61424	0.680283	0.0377299
0	H	0.0785316	0.831183	0.995579
0	H	0.444762	0.162638	0.497077
0	H	0.94784	0.330588	0.508216
0	H	0.579962	0.660054	0.00933622
0	H	0.198491	0.835601	0.951147
0	H	0.316243	0.160565	0.454267
0	H	0.818242	0.332119	0.550784
0	H	0.702633	0.656676	0.0533072
0	H	0.172275	0.776163	0.976739
0	H	0.35918	0.219502	0.479101
0	H	0.862443	0.273494	0.525676
0	H	0.670053	0.715893	0.0278586
0	C	0.900187	0.851107	0.924708
0	C	0.607309	0.138556	0.424486
0	C	0.109189	0.354226	0.580919
0	C	0.407002	0.638567	0.0809157
0	H	0.879046	0.877156	0.951029
0	H	0.634091	0.113131	0.450821
0	H	0.13679	0.379601	0.554607
0	H	0.384544	0.612512	0.0546805
0	H	0.788682	0.84594	0.908918
0	H	0.713465	0.141526	0.405828
0	H	0.214852	0.351261	0.599744
0	H	0.297112	0.642832	0.097697
0	H	0.977399	0.871857	0.903013
0	H	0.521016	0.118122	0.405197
0	H	0.0224631	0.374723	0.600024
0	H	0.487812	0.61815	0.101893
0	C	0.850031	0.770236	0.965205
0	C	0.678958	0.218507	0.463281
0	C	0.181152	0.274259	0.542178
0	C	0.347842	0.718723	0.040621
0	H	0.807959	0.793197	0.991449
0	H	0.717142	0.195737	0.490073
0	H	0.21887	0.296782	0.515194
0	H	0.307822	0.695518	0.0142972
0	H	0.899474	0.735409	0.978674
0	H	0.641087	0.255361	0.475757
0	H	0.143699	0.237207	0.529992
0	H	0.392524	0.754301	0.027311
0	H	0.747978	0.759491	0.946875
0	H	0.781628	0.225066	0.443913
0	H	0.284052	0.268036	0.561519
0	H	0.245153	0.727874	0.0592699
0	C	0.160737	0.706305	0.908737
0	C	0.358911	0.285506	0.409423
0	C	0.859729	0.207384	0.595364
0	C	0.661455	0.784614	0.0959105
0	C	0.102973	0.663567	0.930035
0	C	0.418935	0.328082	0.430514
0	C	0.920305	0.164926	0.574231
0	C	0.602747	0.826996	0.0743183
0	H	0.980317	0.660948	0.938068
0	H	0.542059	0.330357	0.438064
0	H	0.0434755	0.162827	0.566673
0	H	0.48015	0.829185	0.0661844
0	C	0.201359	0.623455	0.941053
0	C	0.322298	0.368486	0.441932
0	C	0.824179	0.124406	0.562785
0	C	0.70005	0.867326	0.0631313
0	H	0.153919	0.589747	0.956439
0	H	0.371409	0.402079	0.457133
0	H	0.873766	0.0908749	0.547635
0	H	0.651847	0.900786	0.0475587
0	C	0.359239	0.625925	0.931625
0	C	0.163845	0.366484	0.43314
0	C	0.665634	0.126227	0.571498
0	C	0.857926	0.865409	0.0726471
0	H	0.436006	0.594794	0.940438
0	H	0.0883033	0.397816	0.442273
0	H	0.590561	0.0947955	0.562356
0	H	0.933998	0.896698	0.0637129
0	C	0.418143	0.668356	0.910709
0	C	0.102737	0.324251	0.412427
0	C	0.603897	0.168414	0.592142
0	C	0.917811	0.823306	0.0938056
0	H	0.540848	0.670485	0.902989
0	H	0.979531	0.322496	0.405189
0	H	0.48062	0.170073	0.599272
0	H	0.0405924	0.821602	0.101585
0	C	0.319355	0.70824	0.899228
0	C	0.199776	0.28408	0.400519
0	C	0.700495	0.208666	0.604142
0	C	0.820067	0.783222	0.105477
0	H	0.368112	0.740882	0.882584
0	H	0.149214	0.251638	0.384005
0	H	0.649495	0.241051	0.620634
0	H	0.869656	0.750859	0.122309
0	O	0.276299	0.987055	0.898469
0	O	0.250428	0.00468333	0.400014
0	O	0.75056	0.487984	0.60464
0	O	0.775529	0.504162	0.105824
0	C	0.996162	0.121438	0.881635
0	C	0.532587	0.870772	0.382398
0	C	0.0335035	0.621671	0.621994
0	C	0.496865	0.369488	0.122694
0	H	0.0265046	0.140824	0.852308
0	H	0.501937	0.851483	0.353056
0	H	0.00243608	0.641525	0.651075
0	H	0.528723	0.349604	0.151702
0	H	0.985351	0.15076	0.90572
0	H	0.544857	0.841297	0.406317
0	H	0.0473041	0.650722	0.597768
0	H	0.484683	0.340474	0.0983675
0	H	0.881081	0.104418	0.876611
0	H	0.647071	0.888184	0.377208
0	H	0.147502	0.60407	0.627644
0	H	0.381993	0.386403	0.128338
0	O	0.163194	0.0805296	0.966714
0	O	0.365779	0.911342	0.467825
0	O	0.866192	0.581352	0.536644
0	O	0.661874	0.410386	0.0375231
0	C	0.812135	0.966379	0.98394
0	C	0.716086	0.0259099	0.484427
0	C	0.215722	0.466362	0.520223
0	C	0.311276	0.524534	0.0205461
0	H	0.71364	0.978674	0.964697
0	H	0.814681	0.0135584	0.465233
0	H	0.314707	0.478847	0.539211
0	H	0.212291	0.511767	0.0394019
0	H	0.765424	0.957621	0.0150384
0	H	0.762878	0.0349801	0.515485
0	H	0.261946	0.456894	0.489173
0	H	0.265549	0.533763	0.989443
0	H	0.85394	0.930132	0.970214
0	H	0.673685	0.0619851	0.4705
0	H	0.173435	0.430467	0.534487
0	H	0.352423	0.560581	0.0348107
0	O	0.0996881	0.99074	0.0458295
0	O	0.427603	0.000679463	0.546471
0	O	0.927867	0.491269	0.457964
0	O	0.59961	0.500571	0.958654
0	C	0.41238	0.90461	0.96748
0	C	0.114397	0.0867807	0.468296
0	C	0.615194	0.405283	0.536531
0	C	0.911868	0.586213	0.0375388
0	H	0.341861	0.871589	0.957253
0	H	0.182308	0.120541	0.458391
0	H	0.684177	0.371718	0.546355
0	H	0.842455	0.619434	0.04788
0	H	0.523265	0.889425	0.978676
0	H	0.00167581	0.10073	0.479231
0	H	0.502695	0.390959	0.52579
0	H	0.0237917	0.600961	0.0267672
0	H	0.435862	0.927644	0.939464
0	H	0.0938198	0.0637003	0.440133
0	H	0.59474	0.42833	0.564716
0	H	0.933383	0.562698	0.0654071
0	O	0.511299	0.972194	0.049293
0	O	0.0184906	0.0190936	0.550315
0	O	0.516342	0.473051	0.454839
0	O	0.00923836	0.519338	0.954957
0	C	0.54324	0.106661	0.973456
0	C	0.984424	0.885406	0.473392
0	C	0.486409	0.607212	0.531193
0	C	0.0406426	0.384304	0.0301917
0	H	0.606757	0.0936609	0.945813
0	H	0.921718	0.898866	0.445756
0	H	0.423782	0.594017	0.55892
0	H	0.104277	0.396898	0.0579266
0	H	0.600291	0.141461	0.984561
0	H	0.926178	0.850664	0.48421
0	H	0.428894	0.642045	0.520327
0	H	0.0973425	0.349585	0.01878
0	H	0.425925	0.117431	0.963054
0	H	0.101544	0.874336	0.463086
0	H	0.604038	0.617991	0.541331
0	H	0.923082	0.373552	0.0404287
0	O	0.548528	0.0910557	0.0791165
0	O	0.977232	0.900033	0.579136
0	O	0.476828	0.591759	0.42543
0	O	0.0453191	0.400698	0.9247
0	C	0.0550658	0.116908	0.0750775
0	C	0.470752	0.874749	0.576073
0	C	0.970343	0.617249	0.427962
0	C	0.552623	0.375658	0.928501
0	H	0.0230655	0.0768313	0.0694581
0	H	0.502432	0.914951	0.570872
0	H	0.00253995	0.577146	0.433417
0	H	0.521698	0.41584	0.934124
0	H	0.0156539	0.139058	0.0481435
0	H	0.510334	0.853113	0.548887
0	H	0.0102189	0.639313	0.454895
0	H	0.512492	0.353602	0.955409
0	H	0.987308	0.130101	0.101976
0	H	0.538581	0.861159	0.602814
0	H	0.0375813	0.630572	0.401027
0	H	0.484772	0.362667	0.901561
0	C	0.275317	0.179191	0.0873726
0	C	0.251195	0.812129	0.588178
0	C	0.750029	0.679496	0.415441
0	C	0.771587	0.312826	0.91628
0	H	0.243217	0.201623	0.0599914
0	H	0.283623	0.789784	0.560784
0	H	0.782537	0.702334	0.442568
0	H	0.737748	0.290338	0.943468
0	H	0.400936	0.183134	0.0920019
0	H	0.125614	0.80799	0.592793
0	H	0.624355	0.683413	0.410823
0	H	0.897268	0.308552	0.912038
0	H	0.219163	0.196242	0.114732
0	H	0.30768	0.795092	0.615477
0	H	0.806051	0.696168	0.387908
0	H	0.716292	0.29603	0.88871
0	O	0.300202	0.117741	0.155977
0	O	0.22187	0.874034	0.656521
0	O	0.720926	0.616863	0.347693
0	O	0.79918	0.374489	0.847848
0	C	0.23415	0.95687	0.154227
0	C	0.288515	0.0348199	0.654229
0	C	0.788012	0.456186	0.350843
0	C	0.735228	0.53524	0.849587
0	H	0.110463	0.955931	0.144944
0	H	0.412242	0.0359228	0.645034
0	H	0.911442	0.455132	0.360332
0	H	0.61142	0.536168	0.858741
0	H	0.245091	0.933875	0.182681
0	H	0.276357	0.0581204	0.682484
0	H	0.776748	0.432736	0.322635
0	H	0.74682	0.558243	0.821148
0	H	0.300059	0.937487	0.129611
0	H	0.222592	0.0537015	0.62933
0	H	0.721483	0.437383	0.375646
0	H	0.800684	0.554669	0.874277
0	O	0.491466	0.0160031	0.212504
0	O	0.0310556	0.975537	0.712483
0	O	0.531117	0.515419	0.292196
0	O	0.993517	0.476733	0.791686
0	C	0.839538	0.991717	0.120893
0	C	0.684398	0.999203	0.62067
0	C	0.18338	0.492594	0.383964
0	C	0.341251	0.499716	0.883311
0	H	0.796901	0.956634	0.105932
0	H	0.728074	0.0339786	0.605432
0	H	0.226122	0.457707	0.399191
0	H	0.297816	0.53446	0.89863
0	H	0.960513	0.984255	0.13041
0	H	0.563915	0.00721386	0.630335
0	H	0.0626367	0.48487	0.374326
0	H	0.461726	0.507696	0.873587
0	H	0.843442	0.0210077	0.096506
0	H	0.678933	0.96972	0.59646
0	H	0.178756	0.522058	0.408214
0	H	0.34668	0.470155	0.907465
0	O	0.886861	0.0622751	0.202588
0	O	0.636724	0.928524	0.702168
0	O	0.137067	0.562991	0.302244
0	O	0.387168	0.429203	0.801437
