#******************************************
#
# CIF file created by Zeo++
# Zeo++ is an open source package to
# analyze microporous materials
#
#*******************************************

_cell_length_a		11.4917(0)
_cell_length_b		6.57033(0)
_cell_length_c		14.9012(0)
_cell_angle_alpha		90(0)
_cell_angle_beta		85.6321(0)
_cell_angle_gamma		90(0)

_symmetry_space_group_name_H-M		'P1'
_symmetry_Int_Tables_number		1
_symmetry_cell_setting		Monoclinic

loop_
_symmetry_equiv_pos_as_xyz
'+x,+y,+z'

loop_
_atom_site_label
_atom_site_type_symbol
_atom_site_fract_x
_atom_site_fract_y
_atom_site_fract_z
0	S	0.334548	0.732209	0.542633
0	S	0.563532	0.229144	0.46373
0	O	0.10693	0.121665	0.813957
0	O	0.791821	0.61847	0.192393
0	O	0.422113	0.848483	0.586974
0	O	0.475954	0.344892	0.419139
0	O	0.313063	0.531631	0.581146
0	O	0.58503	0.0281277	0.425593
0	O	0.0665523	0.0679564	0.630306
0	O	0.831643	0.564512	0.375724
0	N	0.206029	0.873645	0.553906
0	N	0.692103	0.37071	0.452275
0	C	0.139999	0.933739	0.633157
0	C	0.757967	0.43067	0.372948
0	C	0.0612887	0.980033	0.43591
0	C	0.836984	0.477298	0.570266
0	C	0.187034	0.975706	0.466487
0	C	0.711257	0.472999	0.539656
0	C	0.160782	0.708509	0.349947
0	C	0.737454	0.205779	0.656209
0	C	0.257114	0.848885	0.389446
0	C	0.641199	0.346389	0.616733
0	C	0.156967	0.0446843	0.281051
0	C	0.741405	0.54186	0.725238
0	C	0.0773099	0.89496	0.338654
0	C	0.820966	0.392285	0.667547
0	C	0.10837	0.544871	0.413439
0	C	0.790275	0.0424138	0.592728
0	C	0.161665	0.824255	0.720622
0	C	0.735875	0.321481	0.285497
0	C	0.359603	0.742388	0.426906
0	C	0.538429	0.240673	0.579405
0	C	0.281271	0.00585075	0.312326
0	C	0.617134	0.503195	0.693939
0	C	0.202008	0.984286	0.790195
0	C	0.696249	0.481916	0.215839
0	C	0.20031	0.604669	0.260778
0	C	0.697784	0.101676	0.745308
0	C	0.226275	0.883785	0.881784
0	C	0.67209	0.382282	0.124045
0	C	0.0478643	0.718586	0.75357
0	C	0.849285	0.214412	0.25264
0	C	0.304619	0.106557	0.746723
0	C	0.593705	0.604937	0.259131
0	C	0.311318	0.705432	0.867942
0	C	0.58666	0.204343	0.137546
0	C	0.269945	0.0458029	0.946448
0	C	0.628847	0.54478	0.0594403
0	C	0.294872	0.961649	0.0385105
0	C	0.604103	0.461087	0.967252
0	H	0.000138144	0.885875	0.478827
0	H	0.898105	0.383142	0.52735
0	H	0.0247847	0.134969	0.438963
0	H	0.873483	0.632239	0.567235
0	H	0.220787	0.13552	0.470151
0	H	0.677554	0.632796	0.535856
0	H	0.129128	0.203698	0.291699
0	H	0.769263	0.700859	0.714617
0	H	0.153225	0.0138494	0.208704
0	H	0.745115	0.510917	0.797591
0	H	0.994711	0.857951	0.309898
0	H	0.903586	0.355145	0.69628
0	H	0.165211	0.411119	0.415387
0	H	0.73433	0.90756	0.591111
0	H	0.0233653	0.495121	0.391425
0	H	0.87563	0.994059	0.614573
0	H	0.0907323	0.595864	0.483048
0	H	0.807351	0.0933491	0.523074
0	H	0.231142	0.704751	0.711069
0	H	0.665946	0.202982	0.295034
0	H	0.444562	0.819039	0.404498
0	H	0.453744	0.318495	0.60155
0	H	0.373638	0.587549	0.395406
0	H	0.523877	0.086409	0.611424
0	H	0.340668	0.942919	0.257778
0	H	0.557596	0.440356	0.748438
0	H	0.323169	0.145677	0.335103
0	H	0.575298	0.643128	0.671182
0	H	0.262377	0.481476	0.27061
0	H	0.63475	0.980078	0.735423
0	H	0.24277	0.70808	0.210768
0	H	0.656592	0.205201	0.795791
0	H	0.125053	0.538956	0.229978
0	H	0.772755	0.0334826	0.775556
0	H	0.140518	0.82522	0.912241
0	H	0.757809	0.323376	0.0936913
0	H	0.277284	0.214237	0.695816
0	H	0.621333	0.713131	0.309747
0	H	0.372613	0.0077151	0.714143
0	H	0.525831	0.506733	0.292166
0	H	0.346121	0.199	0.796747
0	H	0.552127	0.69623	0.208834
0	H	0.327848	0.635006	0.932518
0	H	0.569756	0.135105	0.0728224
0	H	0.395564	0.753517	0.835516
0	H	0.502639	0.252754	0.170219
0	H	0.276318	0.584937	0.826582
0	H	0.621514	0.0830076	0.178502
0	H	0.20273	0.167536	0.954547
0	H	0.696211	0.666277	0.0515502
0	H	0.349615	0.120237	0.915244
0	H	0.549141	0.619293	0.0906237
0	H	0.321211	0.083752	0.0828772
0	H	0.578662	0.583522	0.922712
0	H	0.365504	0.84893	0.0333902
0	H	0.53294	0.349377	0.972115
0	H	0.217831	0.887274	0.0716976
0	H	0.681022	0.385509	0.934195
0	H	0.0714513	0.168454	0.758661
0	H	0.82745	0.664237	0.247757
0	H	0.060265	0.619974	0.811637
0	H	0.836686	0.116645	0.194344
0	H	0.0145393	0.621978	0.701163
0	H	0.881856	0.116677	0.304991
0	H	0.980095	0.830323	0.77497
0	H	0.917743	0.325229	0.231643
