#******************************************
#
# CIF file created by Zeo++
# Zeo++ is an open source package to
# analyze microporous materials
#
#*******************************************

_cell_length_a		21.085(0)
_cell_length_b		20.9605(0)
_cell_length_c		10.2534(0)
_cell_angle_alpha		90(0)
_cell_angle_beta		90(0)
_cell_angle_gamma		119.887(0)

_symmetry_space_group_name_H-M		'P1'
_symmetry_Int_Tables_number		1
_symmetry_cell_setting		Monoclinic

loop_
_symmetry_equiv_pos_as_xyz
'+x,+y,+z'

loop_
_atom_site_label
_atom_site_type_symbol
_atom_site_fract_x
_atom_site_fract_y
_atom_site_fract_z
0	Br	0.0605926	0.233046	0.905623
0	Br	0.768842	0.837317	0.574036
0	Br	0.168806	0.945765	0.239497
0	Br	0.939437	0.77364	0.406657
0	Br	0.232093	0.17082	0.0728191
0	Br	0.83233	0.0623683	0.741002
0	C	0.0906997	0.33242	0.954819
0	C	0.670471	0.767231	0.622964
0	C	0.237916	0.916019	0.287827
0	C	0.910908	0.674819	0.456246
0	C	0.330403	0.240779	0.121709
0	C	0.763107	0.092062	0.789724
0	C	0.0843887	0.348231	0.0848772
0	C	0.654881	0.743457	0.751975
0	C	0.261831	0.924341	0.417157
0	C	0.919064	0.6594	0.585478
0	C	0.345843	0.264631	0.251165
0	C	0.739503	0.0841926	0.919153
0	H	0.0620155	0.304999	0.158576
0	H	0.697999	0.764779	0.82574
0	H	0.240924	0.946771	0.490996
0	H	0.941241	0.702386	0.658658
0	H	0.302759	0.243622	0.324123
0	H	0.760141	0.0613507	0.992792
0	C	0.106933	0.420767	0.119771
0	C	0.583481	0.692257	0.786343
0	C	0.313165	0.903661	0.45132
0	C	0.898761	0.586768	0.618988
0	C	0.417343	0.316509	0.284638
0	C	0.688894	0.105679	0.953625
0	H	0.102448	0.433757	0.221258
0	H	0.57076	0.674279	0.887682
0	H	0.330817	0.909068	0.552869
0	H	0.904032	0.574715	0.720966
0	H	0.429928	0.33421	0.386081
0	H	0.67113	0.100601	0.054835
0	C	0.134487	0.476959	0.0254552
0	C	0.527897	0.663962	0.691718
0	C	0.341762	0.876646	0.356374
0	C	0.873082	0.531697	0.523694
0	C	0.473053	0.344905	0.189603
0	C	0.6609	0.133681	0.858994
0	C	0.13772	0.459271	0.894168
0	C	0.544936	0.687444	0.561966
0	C	0.31713	0.869034	0.22685
0	C	0.865705	0.548554	0.394088
0	C	0.456096	0.320786	0.0602053
0	C	0.684517	0.139659	0.728942
0	H	0.157229	0.501659	0.819162
0	H	0.502631	0.664105	0.485944
0	H	0.339621	0.849236	0.150733
0	H	0.847351	0.506446	0.317335
0	H	0.498136	0.343453	0.983987
0	H	0.661187	0.158792	0.653332
0	C	0.118487	0.387118	0.859536
0	C	0.615949	0.740103	0.527091
0	C	0.264418	0.887824	0.192562
0	C	0.883602	0.620122	0.35971
0	C	0.384818	0.267581	0.0255558
0	C	0.7365	0.120148	0.6945
0	H	0.124362	0.3746	0.758565
0	H	0.628276	0.759358	0.42658
0	H	0.244765	0.880203	0.0918423
0	H	0.876754	0.632373	0.258908
0	H	0.372739	0.248042	0.924957
0	H	0.755626	0.126805	0.593895
0	C	0.157524	0.555317	0.0662665
0	C	0.450202	0.607272	0.730285
0	C	0.398572	0.855557	0.393762
0	C	0.853072	0.453588	0.561215
0	C	0.550268	0.402171	0.227255
0	C	0.605606	0.156455	0.896901
0	C	0.202793	0.575531	0.186389
0	C	0.430391	0.631008	0.851437
0	C	0.375701	0.811968	0.515875
0	C	0.809299	0.432687	0.683231
0	C	0.571007	0.37923	0.34885
0	C	0.62929	0.200766	0.0174872
0	C	0.20423	0.613468	0.963849
0	C	0.392034	0.597026	0.629354
0	C	0.407158	0.805864	0.293874
0	C	0.803443	0.395547	0.461437
0	C	0.608216	0.411856	0.126425
0	C	0.595452	0.204494	0.795229
0	H	0.213147	0.668059	0.990313
0	H	0.337334	0.552892	0.656928
0	H	0.450712	0.794193	0.320512
0	H	0.791071	0.339713	0.487567
0	H	0.663451	0.455359	0.153028
0	H	0.550859	0.21462	0.822129
0	H	0.177426	0.60112	0.867794
0	H	0.4036	0.583259	0.531684
0	H	0.418854	0.829118	0.194092
0	H	0.825873	0.406954	0.361428
0	H	0.596704	0.424804	0.0279851
0	H	0.581818	0.178747	0.698171
0	H	0.257721	0.617357	0.951256
0	H	0.389165	0.647752	0.618129
0	H	0.356333	0.752071	0.284995
0	H	0.750148	0.393624	0.453325
0	H	0.610832	0.360807	0.115552
0	H	0.645491	0.258119	0.784195
0	C	0.924659	0.508676	0.986139
0	C	0.494936	0.426418	0.657547
0	C	0.576597	0.0747363	0.324145
0	C	0.0699831	0.497553	0.493867
0	C	0.505903	0.580515	0.157429
0	C	0.422058	0.930198	0.823379
0	C	0.886094	0.544105	0.0196747
0	C	0.459629	0.351739	0.686041
0	C	0.651442	0.113521	0.35241
0	C	0.110057	0.462288	0.522154
0	C	0.541467	0.655522	0.184191
0	C	0.347747	0.892142	0.853319
0	H	0.910295	0.603539	0.00966252
0	H	0.40024	0.317024	0.677555
0	H	0.685737	0.0884661	0.341048
0	H	0.0859188	0.402816	0.511481
0	H	0.600655	0.690188	0.176389
0	H	0.313491	0.917198	0.842282
0	C	0.81407	0.50267	0.0665105
0	C	0.500007	0.319533	0.729732
0	C	0.68404	0.186526	0.394129
0	C	0.182817	0.503367	0.561679
0	C	0.501017	0.688105	0.227352
0	C	0.315644	0.819487	0.897884
0	H	0.78271	0.529717	0.0865412
0	H	0.472485	0.26009	0.749416
0	H	0.742537	0.217515	0.4129
0	H	0.214649	0.476296	0.580476
0	H	0.528361	0.746838	0.246417
0	H	0.257097	0.788451	0.916911
0	C	0.782148	0.426347	0.0761834
0	C	0.576047	0.362629	0.742293
0	C	0.641279	0.220284	0.407145
0	C	0.215634	0.580062	0.573803
0	C	0.424903	0.645159	0.239241
0	C	0.358743	0.786293	0.911314
0	H	0.72544	0.392909	0.107713
0	H	0.608447	0.337843	0.772842
0	H	0.666129	0.277542	0.438286
0	H	0.272544	0.612872	0.604605
0	H	0.392331	0.669891	0.269028
0	H	0.334085	0.729097	0.942643
0	C	0.821999	0.391363	0.0481824
0	C	0.611565	0.437908	0.713654
0	C	0.56677	0.181672	0.378663
0	C	0.176176	0.61539	0.544568
0	C	0.38922	0.569808	0.210951
0	C	0.433291	0.824965	0.882149
0	H	0.79537	0.331632	0.0546868
0	H	0.670635	0.469943	0.722148
0	H	0.534719	0.209205	0.388674
0	H	0.202733	0.675043	0.553827
0	H	0.330024	0.537964	0.218954
0	H	0.46533	0.797527	0.892256
0	C	0.893832	0.431561	0.000740255
0	C	0.571548	0.470674	0.669413
0	C	0.533328	0.108362	0.335379
0	C	0.102927	0.574624	0.502925
0	C	0.429384	0.536811	0.167749
0	C	0.466277	0.897805	0.83705
0	C	0.934174	0.391602	0.968338
0	C	0.612089	0.550876	0.636241
0	C	0.45371	0.0701972	0.301753
0	C	0.0645413	0.615886	0.467932
0	C	0.388549	0.456723	0.134076
0	C	0.546126	0.936589	0.804026
0	H	0.961615	0.408228	0.871967
0	H	0.596356	0.562243	0.53884
0	H	0.442058	0.0440426	0.203659
0	H	0.0380229	0.600794	0.370475
0	H	0.403758	0.445265	0.0360984
0	H	0.557493	0.96343	0.706646
0	H	0.898476	0.331808	0.966647
0	H	0.671525	0.574186	0.63484
0	H	0.431296	0.107527	0.300915
0	H	0.101478	0.675756	0.465097
0	H	0.32906	0.433716	0.132379
0	H	0.568951	0.899748	0.803257
0	H	0.978443	0.403921	0.0386121
0	H	0.600927	0.583625	0.707155
0	H	0.420336	0.0266946	0.372228
0	H	0.0220895	0.607026	0.539727
0	H	0.398822	0.423489	0.205094
0	H	0.578832	0.980956	0.873595
0	C	0.0567498	0.658614	0.903221
0	C	0.346525	0.410272	0.574869
0	C	0.590912	0.941028	0.243121
0	C	0.93763	0.349033	0.412983
0	C	0.654169	0.59646	0.0757584
0	C	0.405842	0.0612165	0.740693
0	C	0.0933509	0.684614	0.784082
0	C	0.321782	0.419771	0.45317
0	C	0.58297	0.909042	0.120077
0	C	0.905865	0.325213	0.289343
0	C	0.6786	0.58729	0.953456
0	C	0.416253	0.0975904	0.619554
0	H	0.0946049	0.645588	0.714202
0	H	0.360673	0.459228	0.38225
0	H	0.543239	0.908363	0.0490171
0	H	0.905202	0.364005	0.217599
0	H	0.639723	0.547687	0.882268
0	H	0.456	0.0983118	0.549348
0	C	0.128163	0.759109	0.752553
0	C	0.24796	0.379462	0.419962
0	C	0.624085	0.876475	0.0855951
0	C	0.873552	0.250962	0.254202
0	C	0.752339	0.627999	0.919575
0	C	0.376007	0.131294	0.586667
0	H	0.154449	0.778003	0.658306
0	H	0.229621	0.386484	0.324688
0	H	0.617583	0.851375	0.989891
0	H	0.849056	0.232962	0.158095
0	H	0.770659	0.620842	0.824176
0	H	0.382773	0.156931	0.491723
0	C	0.128547	0.809432	0.842718
0	C	0.197789	0.329565	0.509887
0	C	0.674345	0.876501	0.175322
0	C	0.873063	0.199956	0.343181
0	C	0.802593	0.677987	0.00924856
0	C	0.326013	0.131277	0.676875
0	H	0.15339	0.867301	0.817226
0	H	0.140338	0.296561	0.483774
0	H	0.707863	0.85236	0.148397
0	H	0.848894	0.14218	0.31577
0	H	0.860161	0.710813	0.983072
0	H	0.29274	0.155709	0.650531
0	C	0.0967078	0.784697	0.965062
0	C	0.221795	0.322306	0.632733
0	C	0.68126	0.907249	0.298625
0	C	0.903488	0.223411	0.466847
0	C	0.778722	0.685449	0.133059
0	C	0.319176	0.100257	0.799432
0	H	0.0983898	0.824407	0.0355092
0	H	0.182235	0.283842	0.702859
0	H	0.719877	0.90616	0.368298
0	H	0.902317	0.183317	0.535937
0	H	0.818422	0.724156	0.201843
0	H	0.280763	0.101248	0.869671
0	C	0.0620924	0.709251	0.998276
0	C	0.296245	0.363444	0.66819
0	C	0.639212	0.939629	0.335323
0	C	0.935735	0.29815	0.5036
0	C	0.704416	0.644026	0.168175
0	C	0.36036	0.0665459	0.834864
0	C	0.0347002	0.69064	0.135223
0	C	0.314502	0.353816	0.805015
0	C	0.648186	0.967185	0.472275
0	C	0.963744	0.31647	0.63993
0	C	0.686002	0.653784	0.304759
0	C	0.351697	0.0395776	0.972443
0	H	0.996221	0.710117	0.158183
0	H	0.295052	0.29541	0.826642
0	H	0.706356	0.00561411	0.495175
0	H	0.00220248	0.296265	0.661733
0	H	0.705606	0.71234	0.326433
0	H	0.293875	0.00110164	0.995222
0	H	0.0803567	0.718393	0.205051
0	H	0.286297	0.371014	0.875355
0	H	0.6311	0.921492	0.542165
0	H	0.918893	0.288078	0.711013
0	H	0.714082	0.636704	0.3756
0	H	0.3694	0.0857171	0.0414309
0	H	0.00683077	0.631821	0.159472
0	H	0.372804	0.383665	0.831114
0	H	0.618848	0.996259	0.499397
0	H	0.99313	0.374976	0.667446
0	H	0.627687	0.624311	0.331505
0	H	0.381753	0.0110036	0.99804
0	N	0.240303	0.594396	0.276714
0	N	0.410178	0.649192	0.941195
0	N	0.355156	0.773086	0.604677
0	N	0.770027	0.414448	0.771295
0	N	0.590498	0.359842	0.437814
0	N	0.649108	0.239206	0.107233
0	N	0.0885361	0.559427	0.0885713
0	N	0.447278	0.532357	0.750838
0	N	0.473427	0.92687	0.41584
0	N	0.923759	0.450609	0.585611
0	N	0.552923	0.477171	0.249412
0	N	0.530716	0.0854291	0.916615
0	H	0.101608	0.607155	0.139513
0	H	0.399435	0.497837	0.803019
0	H	0.506565	0.911729	0.469111
0	H	0.909484	0.402782	0.640273
0	H	0.601087	0.511221	0.301794
0	H	0.496587	0.0991664	0.969121
0	H	0.0519661	0.517567	0.14972
0	H	0.488547	0.536328	0.81702
0	H	0.470182	0.965367	0.487032
0	H	0.963187	0.495525	0.66634
0	H	0.511426	0.473399	0.318859
0	H	0.534133	0.0475704	0.981283
0	O	0.0124214	0.519951	0.7776
0	O	0.481355	0.508197	0.460788
0	O	0.489681	0.974232	0.136624
0	O	0.964329	0.483448	0.315837
0	O	0.520498	0.495997	0.966652
0	O	0.502899	0.0229369	0.623353
0	P	0.0188586	0.556693	0.918975
0	P	0.446312	0.471152	0.592233
0	P	0.531522	0.981688	0.261105
0	P	0.976213	0.448704	0.43462
0	P	0.554759	0.535877	0.09369
0	P	0.467471	0.0233009	0.757126
