#******************************************
#
# CIF file created by Zeo++
# Zeo++ is an open source package to
# analyze microporous materials
#
#*******************************************

_cell_length_a		14.8493(0)
_cell_length_b		16.3947(0)
_cell_length_c		18.128(0)
_cell_angle_alpha		90(0)
_cell_angle_beta		90(0)
_cell_angle_gamma		90(0)

_symmetry_space_group_name_H-M		'P1'
_symmetry_Int_Tables_number		1
_symmetry_cell_setting		Monoclinic

loop_
_symmetry_equiv_pos_as_xyz
'+x,+y,+z'

loop_
_atom_site_label
_atom_site_type_symbol
_atom_site_fract_x
_atom_site_fract_y
_atom_site_fract_z
0	C	0.371147	0.894682	0.532635
0	C	0.180372	0.530727	0.0749473
0	C	0.0732006	0.776594	0.799001
0	C	0.455225	0.653004	0.300494
0	C	0.856378	0.414238	0.0503154
0	C	0.661722	0.0475377	0.550307
0	C	0.569614	0.283927	0.299324
0	C	0.95381	0.153645	0.799396
0	C	0.446217	0.812389	0.430636
0	C	0.0801394	0.569266	0.96561
0	C	0.154534	0.861467	0.70141
0	C	0.393474	0.561753	0.198397
0	C	0.945465	0.351394	0.944331
0	C	0.579645	0.10988	0.439913
0	C	0.641135	0.369776	0.197546
0	C	0.879313	0.0657399	0.69956
0	C	0.345886	0.740886	0.523709
0	C	0.177708	0.676841	0.027301
0	C	0.243066	0.766603	0.786058
0	C	0.28716	0.649674	0.274096
0	C	0.854126	0.260545	0.0304316
0	C	0.681112	0.198311	0.520139
0	C	0.73921	0.28162	0.280547
0	C	0.784189	0.158769	0.780612
0	C	0.366635	0.819852	0.483193
0	C	0.166046	0.586828	0.00900922
0	C	0.154061	0.784189	0.748076
0	C	0.381748	0.639433	0.243524
0	C	0.864261	0.34433	0.995446
0	C	0.661094	0.11321	0.491085
0	C	0.647302	0.293521	0.245446
0	C	0.875712	0.143386	0.745801
0	C	0.205471	0.844808	0.451295
0	C	0.324353	0.572277	0.965069
0	C	0.136975	0.641397	0.700751
0	C	0.391745	0.783013	0.196936
0	C	0.702259	0.354405	0.95885
0	C	0.821213	0.084797	0.456273
0	C	0.635468	0.148858	0.200469
0	C	0.890497	0.286583	0.699508
0	O	0.292368	0.835089	0.428615
0	O	0.234771	0.565387	0.951043
0	O	0.141956	0.72275	0.687218
0	O	0.394704	0.701422	0.183552
0	O	0.790658	0.355653	0.939489
0	O	0.733185	0.0916085	0.436169
0	O	0.635513	0.230299	0.186389
0	O	0.888786	0.205221	0.685326
0	O	0.178706	0.832676	0.514784
0	O	0.356063	0.591456	0.0255489
0	O	0.14869	0.609568	0.761648
0	O	0.375482	0.814477	0.257154
0	O	0.674042	0.337892	0.0211018
0	O	0.850277	0.0997917	0.518619
0	O	0.649021	0.117223	0.261038
0	O	0.877218	0.317699	0.760474
0	N	0.149416	0.867289	0.393958
0	N	0.377463	0.557862	0.903612
0	N	0.11936	0.597199	0.637069
0	N	0.407039	0.827475	0.133021
0	N	0.64606	0.371036	0.899728
0	N	0.875216	0.0611887	0.397999
0	N	0.620942	0.104472	0.136283
0	N	0.906719	0.331701	0.63614
0	C	0.184004	0.878062	0.31825
0	C	0.338398	0.544911	0.82972
0	C	0.105094	0.639162	0.565786
0	C	0.425077	0.784446	0.0628828
0	C	0.682322	0.383241	0.824725
0	C	0.838878	0.0512053	0.322774
0	C	0.603919	0.147732	0.0660044
0	C	0.922901	0.290278	0.564921
0	C	0.108939	0.86127	0.260145
0	C	0.412385	0.558877	0.769903
0	C	0.11406	0.57671	0.501361
0	C	0.416931	0.844748	0.997031
0	C	0.60619	0.370193	0.76672
0	C	0.9129	0.068753	0.263919
0	C	0.612666	0.0874902	0.000191521
0	C	0.915523	0.352995	0.500571
0	C	0.0718706	0.774855	0.269303
0	C	0.450023	0.645616	0.773968
0	C	0.205295	0.533224	0.50378
0	C	0.325234	0.887314	0.997399
0	C	0.566008	0.284521	0.772883
0	C	0.950015	0.155199	0.272647
0	C	0.704552	0.0452622	0.000561503
0	C	0.824551	0.396966	0.501883
0	C	0.147684	0.873268	0.182571
0	C	0.373431	0.541527	0.693286
0	C	0.101829	0.62135	0.427901
0	C	0.431957	0.798958	0.924451
0	C	0.643596	0.385422	0.689218
0	C	0.873483	0.0565123	0.186641
0	C	0.597426	0.132814	0.927398
0	C	0.928984	0.308685	0.427113
0	C	0.218035	0.966388	0.308315
0	C	0.301924	0.457237	0.820519
0	C	0.00980738	0.677667	0.563165
0	C	0.521444	0.748018	0.0631018
0	C	0.720084	0.47046	0.815006
0	C	0.805535	0.962828	0.312078
0	C	0.507464	0.183829	0.0656632
0	C	0.0183695	0.251824	0.563634
0	O	0.174022	0.0271961	0.325569
0	O	0.34398	0.395915	0.839438
0	O	0.941289	0.638827	0.578666
0	O	0.588553	0.78885	0.0783101
0	O	0.678558	0.532459	0.832914
0	O	0.849732	0.901956	0.328735
0	O	0.440209	0.143017	0.080542
0	O	0.086219	0.290939	0.580419
0	N	0.30215	0.973869	0.276023
0	N	0.218878	0.450171	0.786469
0	N	0.00518431	0.75848	0.540876
0	N	0.528028	0.666795	0.0431496
0	N	0.803681	0.476158	0.78162
0	N	0.721753	0.95528	0.2791
0	N	0.500741	0.265147	0.0459462
0	N	0.024151	0.171257	0.540955
0	C	0.34447	0.0539697	0.262202
0	C	0.176955	0.370151	0.771452
0	C	0.918153	0.801464	0.531643
0	C	0.615362	0.624545	0.0344523
0	C	0.848052	0.555409	0.767919
0	C	0.680985	0.874822	0.263991
0	C	0.412789	0.306549	0.0378934
0	C	0.11129	0.128553	0.531291
0	C	0.35103	0.103856	0.333449
0	C	0.16621	0.320424	0.84238
0	C	0.86427	0.801726	0.603728
0	C	0.670585	0.626339	0.105653
0	C	0.859041	0.604237	0.839401
0	C	0.674882	0.82361	0.334474
0	C	0.358777	0.305343	0.109768
0	C	0.165634	0.127912	0.603142
0	C	0.44142	0.0429337	0.231443
0	C	0.0817569	0.381084	0.73715
0	C	0.933067	0.892006	0.508657
0	C	0.599702	0.53411	0.0116894
0	C	0.943689	0.542784	0.734967
0	C	0.584169	0.884861	0.232749
0	C	0.426879	0.396921	0.0144884
0	C	0.096261	0.0379314	0.508301
0	O	0.445978	0.00398165	0.161532
0	O	0.080933	0.42444	0.669245
0	O	0.970929	0.904355	0.43764
0	O	0.559688	0.522841	0.941195
0	O	0.945651	0.503552	0.665043
0	O	0.579948	0.925641	0.163667
0	O	0.466888	0.408045	0.944003
0	O	0.0558707	0.0259595	0.43822
0	C	0.288754	0.103045	0.204874
0	C	0.23423	0.321027	0.715047
0	C	0.861181	0.759017	0.4709
0	C	0.671664	0.666701	0.972941
0	C	0.792672	0.606137	0.711513
0	C	0.737837	0.827225	0.206415
0	C	0.355712	0.263219	0.977582
0	C	0.167606	0.170928	0.469969
0	O	0.276169	0.0572315	0.142625
0	O	0.250938	0.367999	0.653904
0	O	0.914864	0.73977	0.412071
0	O	0.617533	0.685589	0.914409
0	O	0.77585	0.559851	0.650007
0	O	0.749969	0.873775	0.14451
0	O	0.409131	0.243364	0.918774
0	O	0.113819	0.188834	0.410889
0	O	0.262009	0.172492	0.210351
0	O	0.258428	0.250798	0.719527
0	O	0.781111	0.745639	0.471434
0	O	0.751885	0.679364	0.9732
0	O	0.769483	0.676638	0.716277
0	O	0.765714	0.758123	0.211273
0	O	0.275724	0.249968	0.978765
0	O	0.247631	0.184744	0.470359
0	C	0.237962	0.0977317	0.0781933
0	C	0.288147	0.32766	0.588899
0	C	0.872441	0.705101	0.346671
0	C	0.659136	0.720544	0.848739
0	C	0.738675	0.600923	0.585423
0	C	0.78906	0.83402	0.0800252
0	C	0.366418	0.206649	0.854389
0	C	0.155669	0.221467	0.344303
0	H	0.0872547	0.89472	0.407874
0	H	0.441759	0.532148	0.91445
0	H	0.0905605	0.538719	0.643992
0	H	0.432178	0.887321	0.139109
0	H	0.58311	0.398009	0.912832
0	H	0.937456	0.0331455	0.410791
0	H	0.595571	0.0447484	0.141746
0	H	0.93376	0.390869	0.6434
0	H	0.338847	0.921979	0.260824
0	H	0.184564	0.501766	0.767527
0	H	0.0630483	0.791208	0.525503
0	H	0.470223	0.632829	0.0302625
0	H	0.838266	0.423952	0.764326
0	H	0.684982	0.00703154	0.263674
0	H	0.557939	0.298558	0.0302147
0	H	0.966294	0.13809	0.526651
0	H	0.41703	0.0396129	0.122602
0	H	0.114653	0.392498	0.630344
0	H	0.934376	0.877278	0.397492
0	H	0.594333	0.551722	0.900592
0	H	0.912405	0.537463	0.627184
0	H	0.610087	0.89128	0.124356
0	H	0.431578	0.379425	0.903567
0	H	0.0912678	0.0527433	0.397247
0	H	0.429545	0.892517	0.569661
0	H	0.126608	0.537343	0.115877
0	H	0.00957575	0.786228	0.769481
0	H	0.454505	0.606097	0.343479
0	H	0.860595	0.473854	0.0229284
0	H	0.659396	0.986312	0.526047
0	H	0.504098	0.288941	0.271692
0	H	0.954985	0.104902	0.840804
0	H	0.375675	0.951075	0.500099
0	H	0.182734	0.466447	0.0580184
0	H	0.0760759	0.82045	0.844573
0	H	0.522485	0.65363	0.275561
0	H	0.909319	0.411457	0.0922918
0	H	0.604528	0.053131	0.588065
0	H	0.571791	0.330314	0.342766
0	H	0.0188814	0.153563	0.770498
0	H	0.310116	0.899668	0.566929
0	H	0.244933	0.544132	0.102582
0	H	0.0702291	0.715359	0.823728
0	H	0.446119	0.71292	0.328057
0	H	0.791275	0.412803	0.0792688
0	H	0.723396	0.0510159	0.583705
0	H	0.570973	0.223658	0.326348
0	H	0.948406	0.2125	0.828695
0	H	0.501424	0.776994	0.454777
0	H	0.0258088	0.611336	0.980711
0	H	0.201026	0.907637	0.722525
0	H	0.357718	0.510242	0.223051
0	H	0.992072	0.300184	0.950769
0	H	0.527448	0.153884	0.455221
0	H	0.684494	0.418782	0.217663
0	H	0.834884	0.018071	0.721068
0	H	0.472731	0.871682	0.413349
0	H	0.0551103	0.506814	0.973461
0	H	0.0879069	0.889273	0.696877
0	H	0.464267	0.544688	0.191632
0	H	0.983966	0.40765	0.953064
0	H	0.548644	0.0493417	0.438472
0	H	0.572368	0.393439	0.193551
0	H	0.947359	0.0405625	0.695368
0	H	0.424718	0.781597	0.378717
0	H	0.0926568	0.576752	0.905854
0	H	0.175709	0.847558	0.644001
0	H	0.366479	0.570771	0.141797
0	H	0.923515	0.351292	0.885784
0	H	0.600725	0.123732	0.382384
0	H	0.662546	0.355725	0.140199
0	H	0.857992	0.078508	0.641935
0	H	0.285694	0.747046	0.558975
0	H	0.244924	0.688928	0.0508307
0	H	0.242456	0.706077	0.812972
0	H	0.278753	0.709777	0.3006
0	H	0.788308	0.254058	0.0581419
0	H	0.747144	0.200658	0.54827
0	H	0.744718	0.221016	0.30665
0	H	0.782345	0.218511	0.808728
0	H	0.332551	0.690937	0.484942
0	H	0.170444	0.715018	0.977909
0	H	0.299981	0.766778	0.747187
0	H	0.236219	0.645017	0.230435
0	H	0.858789	0.21161	0.989214
0	H	0.682341	0.243568	0.475444
0	H	0.793717	0.286068	0.239771
0	H	0.730401	0.159247	0.739027
0	H	0.40144	0.721638	0.559347
0	H	0.128007	0.697562	0.0678505
0	H	0.25808	0.811405	0.829076
0	H	0.271623	0.603317	0.315677
0	H	0.906393	0.249506	0.0719302
0	H	0.631071	0.218599	0.560546
0	H	0.752345	0.327349	0.32333
0	H	0.767125	0.112505	0.821954
0	H	0.241551	0.8336	0.309242
0	H	0.281497	0.590055	0.821794
0	H	0.15797	0.688437	0.559695
0	H	0.374181	0.733404	0.056956
0	H	0.738012	0.337151	0.815429
0	H	0.780952	0.0955445	0.314701
0	H	0.654807	0.198867	0.0604704
0	H	0.870234	0.240863	0.558123
0	H	0.0527712	0.905821	0.269128
0	H	0.468923	0.514927	0.780637
0	H	0.0594481	0.529999	0.507482
0	H	0.471051	0.891959	0.00312748
0	H	0.551433	0.415731	0.777895
0	H	0.969305	0.0243543	0.272539
0	H	0.558807	0.0400614	0.00647832
0	H	0.970217	0.399504	0.507499
0	H	0.171262	0.935965	0.173189
0	H	0.356839	0.476709	0.685466
0	H	0.034846	0.64963	0.423024
0	H	0.498671	0.769525	0.922172
0	H	0.661983	0.449657	0.680418
0	H	0.852073	0.993262	0.176787
0	H	0.530034	0.160733	0.924307
0	H	0.995647	0.279667	0.42322
0	H	0.0969995	0.860314	0.140281
0	H	0.421611	0.557607	0.649892
0	H	0.109145	0.579601	0.381124
0	H	0.428091	0.840406	0.877097
0	H	0.593713	0.369986	0.646971
0	H	0.923234	0.0711432	0.144019
0	H	0.603114	0.0912226	0.880276
0	H	0.923124	0.350807	0.380475
0	H	0.205334	0.833022	0.172281
0	H	0.31159	0.576216	0.682562
0	H	0.151453	0.670262	0.42071
0	H	0.382149	0.750487	0.915682
0	H	0.703947	0.348967	0.677951
0	H	0.814442	0.0953154	0.177084
0	H	0.646222	0.182144	0.918834
0	H	0.879056	0.260268	0.418817
0	H	0.045666	0.765003	0.325374
0	H	0.479316	0.658446	0.828482
0	H	0.214099	0.498742	0.555353
0	H	0.313869	0.920632	0.0492539
0	H	0.536701	0.273961	0.827903
0	H	0.977702	0.164888	0.328282
0	H	0.715822	0.0112179	0.0520502
0	H	0.814845	0.431341	0.5534
0	H	0.0160343	0.76373	0.231124
0	H	0.504211	0.654152	0.73361
0	H	0.211404	0.489373	0.458316
0	H	0.320836	0.932015	0.95276
0	H	0.51115	0.276353	0.732964
0	H	0.00514209	0.166173	0.233663
0	H	0.709344	0.00130852	0.955314
0	H	0.819567	0.440804	0.456406
0	H	0.123355	0.72845	0.259198
0	H	0.398474	0.691899	0.762998
0	H	0.261445	0.576402	0.499801
0	H	0.269724	0.843966	0.991251
0	H	0.616106	0.236749	0.762907
0	H	0.898313	0.20159	0.263163
0	H	0.759948	0.088869	0.995007
0	H	0.768138	0.354269	0.497074
0	H	0.39636	0.075505	0.373567
0	H	0.117232	0.348278	0.87996
0	H	0.899901	0.834346	0.647636
0	H	0.637705	0.593082	0.150561
0	H	0.907077	0.575176	0.87704
0	H	0.63036	0.851616	0.375436
0	H	0.392286	0.339303	0.15394
0	H	0.130209	0.094964	0.647012
0	H	0.284986	0.109495	0.361196
0	H	0.230015	0.316545	0.873774
0	H	0.851838	0.739278	0.624662
0	H	0.681099	0.689684	0.125329
0	H	0.794895	0.609266	0.870098
0	H	0.741265	0.817157	0.361644
0	H	0.348704	0.242208	0.130089
0	H	0.17805	0.190209	0.624331
0	H	0.373832	0.166408	0.323196
0	H	0.145478	0.257436	0.831532
0	H	0.797427	0.829183	0.596886
0	H	0.73839	0.60122	0.0974237
0	H	0.881377	0.667018	0.829224
0	H	0.651601	0.761438	0.323267
0	H	0.29068	0.330186	0.101935
0	H	0.232399	0.100365	0.596041
0	H	0.474391	0.103479	0.228021
0	H	0.0511557	0.320136	0.728603
0	H	0.868204	0.92555	0.511345
0	H	0.664503	0.500618	0.0129672
0	H	0.977516	0.602848	0.73033
0	H	0.552663	0.823851	0.227687
0	H	0.361349	0.429275	0.0153832
0	H	0.161243	0.00448317	0.509489
0	H	0.481801	0.00197096	0.267787
0	H	0.037066	0.418358	0.773361
0	H	0.982663	0.922309	0.545786
0	H	0.551079	0.503374	0.0494405
0	H	0.985116	0.501707	0.770449
0	H	0.54233	0.924083	0.269564
0	H	0.474712	0.428707	0.0521653
0	H	0.0482178	0.00701782	0.546384
0	H	0.198429	0.151312	0.0939375
0	H	0.328681	0.274443	0.603934
0	H	0.80454	0.68276	0.358626
0	H	0.727313	0.742774	0.859986
0	H	0.697227	0.653348	0.601159
0	H	0.828544	0.780335	0.0957577
0	H	0.299079	0.183374	0.867345
0	H	0.224068	0.243353	0.354828
0	H	0.295311	0.116236	0.0435975
0	H	0.230158	0.308981	0.554843
0	H	0.870097	0.754808	0.305686
0	H	0.661136	0.670736	0.807885
0	H	0.796633	0.620981	0.551976
0	H	0.732099	0.815715	0.0448396
0	H	0.362224	0.255673	0.812834
0	H	0.156489	0.170638	0.304391
0	H	0.196659	0.0504317	0.0526916
0	H	0.328158	0.375349	0.562395
0	H	0.917743	0.655832	0.330247
0	H	0.613428	0.769681	0.832717
0	H	0.699494	0.553187	0.558116
0	H	0.830526	0.881648	0.055144
0	H	0.412654	0.15794	0.838131
0	H	0.110867	0.270755	0.32708
