#******************************************
#
# CIF file created by Zeo++
# Zeo++ is an open source package to
# analyze microporous materials
#
#*******************************************

_cell_length_a		10.6832(0)
_cell_length_b		14.6801(0)
_cell_length_c		21.4573(0)
_cell_angle_alpha		80.5704(0)
_cell_angle_beta		85.9257(0)
_cell_angle_gamma		89.327(0)

_symmetry_space_group_name_H-M		'P1'
_symmetry_Int_Tables_number		1
_symmetry_cell_setting		Triclinic

loop_
_symmetry_equiv_pos_as_xyz
'+x,+y,+z'

loop_
_atom_site_label
_atom_site_type_symbol
_atom_site_fract_x
_atom_site_fract_y
_atom_site_fract_z
0	Br	0.813385	0.24723	0.289908
0	Br	0.375316	0.639682	0.697688
0	Br	0.558923	0.171921	0.279173
0	Br	0.629961	0.714967	0.708104
0	O	0.0957023	0.884796	0.31916
0	O	0.0934653	0.00231889	0.667946
0	H	0.123007	0.864064	0.278025
0	H	0.0661848	0.0231752	0.709042
0	O	0.746375	0.936972	0.455449
0	O	0.442755	0.950017	0.531734
0	O	0.497657	0.758744	0.410896
0	O	0.691391	0.128433	0.576337
0	O	0.530275	0.834861	0.169156
0	O	0.658673	0.0522816	0.817889
0	O	0.323271	0.622687	0.257765
0	O	0.865937	0.264103	0.729366
0	O	0.85395	0.898241	0.18835
0	O	0.334958	0.989266	0.798975
0	O	0.814325	0.788464	0.905336
0	O	0.374861	0.0989082	0.0817749
0	C	0.904061	0.132586	0.297457
0	C	0.28463	0.754321	0.68997
0	C	0.91686	0.0826651	0.357813
0	C	0.271963	0.804134	0.629564
0	H	0.873038	0.106521	0.399895
0	H	0.315804	0.780128	0.587537
0	C	0.98569	0.000313515	0.364739
0	C	0.203253	0.886524	0.622531
0	C	0.0161703	0.95272	0.429168
0	C	0.172961	0.934027	0.558044
0	H	0.997006	0.000621034	0.464104
0	H	0.192426	0.886104	0.523144
0	H	0.120088	0.94142	0.427288
0	H	0.0690184	0.945178	0.55981
0	C	0.949977	0.863188	0.455144
0	C	0.239004	0.023627	0.532094
0	C	0.0218387	0.78313	0.470315
0	C	0.167038	0.103628	0.516958
0	H	0.122055	0.785297	0.455899
0	H	0.0668111	0.101391	0.531364
0	C	0.967718	0.700693	0.502636
0	C	0.221061	0.186126	0.48462
0	C	0.83848	0.698723	0.519351
0	C	0.350294	0.188211	0.467926
0	H	0.795146	0.635362	0.545066
0	H	0.393587	0.251593	0.442218
0	C	0.762273	0.776003	0.503062
0	C	0.426593	0.110966	0.48419
0	C	0.623796	0.773508	0.522032
0	C	0.565065	0.113535	0.46521
0	H	0.609345	0.784704	0.572407
0	H	0.579494	0.102348	0.414831
0	H	0.576708	0.834703	0.494762
0	H	0.612194	0.0523463	0.492472
0	C	0.561226	0.685953	0.513282
0	C	0.627614	0.201112	0.473939
0	C	0.563882	0.606191	0.559255
0	C	0.624887	0.280861	0.427958
0	H	0.605863	0.60911	0.60378
0	H	0.582752	0.277941	0.383475
0	C	0.514129	0.523197	0.548369
0	C	0.674723	0.363866	0.438791
0	H	0.51773	0.461572	0.584384
0	H	0.671031	0.425467	0.402764
0	C	0.461831	0.517902	0.49117
0	C	0.727196	0.369184	0.495946
0	H	0.427528	0.451803	0.482523
0	H	0.761597	0.435275	0.504555
0	C	0.454447	0.596647	0.444859
0	C	0.734649	0.290441	0.542247
0	C	0.400459	0.590701	0.382919
0	C	0.788763	0.296355	0.604167
0	H	0.328076	0.646011	0.373276
0	H	0.860986	0.240921	0.613802
0	H	0.348595	0.524723	0.385784
0	H	0.840781	0.362273	0.601272
0	C	0.49537	0.600946	0.32679
0	C	0.693871	0.286238	0.660299
0	C	0.624641	0.604367	0.332314
0	C	0.564582	0.283039	0.654781
0	H	0.660158	0.597532	0.379366
0	H	0.529057	0.289983	0.607729
0	C	0.710044	0.621006	0.278675
0	C	0.479159	0.266492	0.708415
0	C	0.664638	0.629188	0.218478
0	C	0.524598	0.258197	0.768615
0	H	0.729021	0.640773	0.176172
0	H	0.460205	0.246689	0.810917
0	C	0.535528	0.626623	0.210927
0	C	0.65373	0.260551	0.776166
0	C	0.485641	0.642574	0.146094
0	C	0.703648	0.24447	0.840995
0	H	0.486445	0.575937	0.127829
0	H	0.703079	0.311082	0.859287
0	H	0.384516	0.663024	0.150302
0	H	0.804704	0.223857	0.836765
0	C	0.557863	0.715343	0.100599
0	C	0.631251	0.171775	0.886457
0	C	0.616141	0.693104	0.0444571
0	C	0.572909	0.194085	0.942567
0	H	0.603112	0.624316	0.0329578
0	H	0.585972	0.262882	0.954054
0	C	0.692076	0.757338	0.00340449
0	C	0.496905	0.129898	0.98362
0	C	0.71219	0.84511	0.0188959
0	C	0.476831	0.0420891	0.968186
0	H	0.774282	0.893898	0.987263
0	H	0.414752	0.99332	0.999831
0	C	0.653569	0.870337	0.0736711
0	C	0.535457	0.0168231	0.913423
0	C	0.671015	0.964386	0.0906192
0	C	0.51794	0.922777	0.896489
0	H	0.616168	0.0155686	0.0594224
0	H	0.572819	0.871567	0.927647
0	H	0.627297	0.966153	0.139664
0	H	0.561514	0.921019	0.847415
0	C	0.80599	0.993117	0.0869015
0	C	0.382943	0.894083	0.900276
0	C	0.857314	0.0481759	0.0316402
0	C	0.331693	0.838912	0.955504
0	H	0.798297	0.0672303	0.992049
0	H	0.39077	0.819745	0.995063
0	C	0.9825	0.0782008	0.0257129
0	C	0.20648	0.808945	0.961442
0	C	0.0543695	0.0581485	0.0783588
0	C	0.134573	0.829094	0.90882
0	H	0.150639	0.0836645	0.0762899
0	H	0.0382865	0.803612	0.910896
0	C	0.00557569	0.00424956	0.134525
0	C	0.183324	0.883066	0.852666
0	C	0.0832444	0.985231	0.190967
0	C	0.105659	0.902121	0.796229
0	H	0.100411	0.909198	0.202094
0	H	0.0887421	0.978175	0.785019
0	H	0.177891	0.0176563	0.179301
0	H	0.0109092	0.869874	0.807928
0	C	0.023174	0.0195359	0.248312
0	C	0.165582	0.867602	0.738939
0	C	0.956945	0.103015	0.242935
0	C	0.231626	0.784029	0.744421
0	H	0.946838	0.143589	0.196111
0	H	0.241592	0.743459	0.791287
0	C	0.0346644	0.968088	0.309384
0	C	0.154253	0.918931	0.677821
0	C	0.819648	0.857788	0.470314
0	C	0.369324	0.0291238	0.516894
0	C	0.501184	0.680675	0.457652
0	C	0.687817	0.206415	0.529516
0	C	0.452475	0.612747	0.265298
0	C	0.736777	0.274308	0.721793
0	C	0.57491	0.805266	0.113915
0	C	0.614119	0.0818605	0.873158
0	C	0.883611	0.967293	0.137207
0	C	0.305266	0.920043	0.850011
0	C	0.0488901	0.613979	0.517016
0	C	0.139695	0.272725	0.470213
0	C	0.9879	0.543438	0.571668
0	C	0.200664	0.343366	0.415612
0	H	0.975092	0.572916	0.615397
0	H	0.214097	0.313813	0.371931
0	H	0.0471092	0.481946	0.581302
0	H	0.141101	0.404628	0.405789
0	H	0.895867	0.520686	0.560648
0	H	0.292382	0.366486	0.426792
0	C	0.179013	0.638854	0.535954
0	C	0.00976391	0.247658	0.451154
0	H	0.171146	0.672315	0.578131
0	H	0.0179375	0.214405	0.408887
0	H	0.231459	0.685218	0.497937
0	H	0.957425	0.201031	0.489061
0	H	0.23754	0.577203	0.547083
0	H	0.950961	0.309176	0.440112
0	C	0.0629878	0.570508	0.456195
0	C	0.125205	0.316166	0.531044
0	H	0.121201	0.508157	0.462586
0	H	0.0666357	0.37833	0.524638
0	H	0.106543	0.618841	0.416428
0	H	0.0817811	0.2677	0.570769
0	H	0.97146	0.551518	0.442073
0	H	0.21657	0.335407	0.545212
0	C	0.849808	0.632229	0.28793
0	C	0.33938	0.255443	0.69917
0	C	0.901862	0.536674	0.315221
0	C	0.287497	0.351027	0.671824
0	H	0.00040181	0.541298	0.325236
0	H	0.188831	0.346547	0.661994
0	H	0.895379	0.48779	0.282125
0	H	0.294437	0.40003	0.704808
0	H	0.849825	0.506808	0.359556
0	H	0.33932	0.380672	0.627373
0	C	0.863211	0.701172	0.334012
0	C	0.325777	0.186459	0.653133
0	H	0.817851	0.767536	0.31661
0	H	0.370945	0.120036	0.670563
0	H	0.961636	0.716361	0.339445
0	H	0.227311	0.171437	0.647695
0	H	0.820006	0.676318	0.381538
0	H	0.369031	0.211205	0.605599
0	C	0.925445	0.670157	0.225413
0	C	0.263668	0.217651	0.761693
0	H	0.890942	0.738956	0.204898
0	H	0.297897	0.14876	0.782187
0	H	0.92032	0.625024	0.189895
0	H	0.269101	0.262735	0.797224
0	H	0.0245704	0.678454	0.233095
0	H	0.164473	0.209609	0.754044
0	C	0.0372088	0.128636	0.961547
0	C	0.151802	0.758398	0.0255806
0	C	0.173247	0.160636	0.964026
0	C	0.0157936	0.726368	0.0230604
0	H	0.235508	0.101632	0.977198
0	H	0.953467	0.785341	0.00994959
0	H	0.180334	0.208018	0.997992
0	H	0.00877387	0.679068	0.989034
0	H	0.210392	0.196259	0.917611
0	H	0.978662	0.690631	0.0694439
0	C	0.0358877	0.0607473	0.913802
0	C	0.153068	0.826196	0.0733949
0	H	0.0717222	0.992382	0.933917
0	H	0.117223	0.894575	0.0533239
0	H	0.0956031	0.0850746	0.870768
0	H	0.0933189	0.801789	0.116403
0	H	0.941547	0.0497007	0.89978
0	H	0.247405	0.837222	0.0874589
0	C	0.956593	0.21443	0.940271
0	C	0.232471	0.672596	0.0467837
0	H	0.9913	0.250248	0.893548
0	H	0.197524	0.636502	0.0933816
0	H	0.95857	0.263405	0.973591
0	H	0.230845	0.623854	0.0132975
0	H	0.858245	0.196143	0.937633
0	H	0.330729	0.690935	0.0496356
0	C	0.752502	0.733508	0.943782
0	C	0.436364	0.153863	0.0431823
0	H	0.738497	0.662305	0.93542
0	H	0.450046	0.225191	0.051381
0	C	0.383999	0.129261	0.278759
0	C	0.804966	0.757628	0.708265
0	H	0.329963	0.155976	0.317805
0	H	0.858725	0.730955	0.669119
0	H	0.348012	0.162855	0.233695
0	H	0.841245	0.723973	0.753244
0	C	0.382436	0.0265771	0.286578
0	C	0.806502	0.860307	0.700493
0	C	0.381792	0.974269	0.34764
0	C	0.807099	0.912643	0.639442
0	H	0.380814	0.00897316	0.388984
0	H	0.808108	0.877972	0.598083
0	C	0.384361	0.877848	0.355143
0	C	0.804408	0.0090622	0.631973
0	C	0.391041	0.820428	0.419709
0	C	0.797631	0.0664738	0.567408
0	H	0.413908	0.860932	0.456948
0	H	0.774334	0.026004	0.530228
0	H	0.304801	0.779298	0.435204
0	H	0.884005	0.107398	0.551782
0	C	0.385118	0.833773	0.301863
0	C	0.803613	0.0531176	0.68527
0	H	0.388433	0.758332	0.308193
0	H	0.800149	0.128559	0.67896
0	C	0.386182	0.885762	0.241014
0	C	0.802683	0.00108869	0.746103
0	C	0.394368	0.836934	0.184368
0	C	0.794582	0.0498847	0.80277
0	H	0.35888	0.764973	0.195485
0	H	0.830358	0.12177	0.791694
0	H	0.349468	0.874839	0.142835
0	H	0.839251	0.0118185	0.844321
0	C	0.385417	0.982424	0.233223
0	C	0.803546	0.904429	0.753865
0	H	0.389158	0.0232549	0.185595
0	H	0.799899	0.863548	0.801477
0	C	0.688742	0.938973	0.395582
0	C	0.500006	0.947919	0.591717
0	H	0.761728	0.940861	0.357084
0	H	0.426817	0.946457	0.63008
0	H	0.634573	0.00352179	0.390959
0	H	0.553629	0.883111	0.596537
0	H	0.627804	0.878443	0.3984
0	H	0.561384	0.00820229	0.588902
0	C	0.258111	0.536483	0.258326
0	C	0.931535	0.350193	0.728589
0	H	0.161189	0.559528	0.251315
0	H	0.0281779	0.326867	0.736111
0	H	0.264429	0.491625	0.30403
0	H	0.926112	0.394552	0.682628
0	H	0.296421	0.502452	0.219521
0	H	0.892869	0.384883	0.767001
0	C	0.750221	0.914593	0.232509
0	C	0.438319	0.972813	0.754631
0	H	0.757268	0.853897	0.27013
0	H	0.431103	0.0334538	0.716987
0	H	0.660559	0.913482	0.210193
0	H	0.528154	0.973912	0.776804
0	H	0.763489	0.979501	0.249834
0	H	0.424845	0.907883	0.737379
