#******************************************
#
# CIF file created by Zeo++
# Zeo++ is an open source package to
# analyze microporous materials
#
#*******************************************

_cell_length_a		12.9864(0)
_cell_length_b		12.9008(0)
_cell_length_c		41.428(0)
_cell_angle_alpha		90(0)
_cell_angle_beta		90(0)
_cell_angle_gamma		90(0)

_symmetry_space_group_name_H-M		'P1'
_symmetry_Int_Tables_number		1
_symmetry_cell_setting		Monoclinic

loop_
_symmetry_equiv_pos_as_xyz
'+x,+y,+z'

loop_
_atom_site_label
_atom_site_type_symbol
_atom_site_fract_x
_atom_site_fract_y
_atom_site_fract_z
0	O	0.687237	0.588669	0.457268
0	O	0.34448	0.448334	0.958423
0	O	0.943426	0.188347	0.709784
0	O	0.0872897	0.848378	0.206197
0	O	0.842437	0.0880938	0.811127
0	O	0.185861	0.948541	0.307695
0	O	0.585877	0.690001	0.559917
0	O	0.444953	0.34889	0.0580906
0	O	0.913961	0.748404	0.283794
0	O	0.115445	0.286117	0.786924
0	O	0.785954	0.414585	0.53657
0	O	0.246147	0.620011	0.0334043
0	O	0.615312	0.249806	0.983672
0	O	0.413026	0.789028	0.480425
0	O	0.743932	0.914895	0.733661
0	O	0.283839	0.121183	0.230127
0	O	0.6638	0.0770771	0.376912
0	O	0.366122	0.956987	0.88065
0	O	0.455769	0.165637	0.629685
0	O	0.575285	0.872794	0.125381
0	O	0.868278	0.578902	0.891661
0	O	0.163156	0.45844	0.387631
0	O	0.0724274	0.666249	0.640096
0	O	0.955402	0.371148	0.136073
0	O	0.0423539	0.896937	0.461997
0	O	0.990947	0.138411	0.967379
0	O	0.634176	0.543369	0.716249
0	O	0.397735	0.494761	0.212856
0	O	0.491377	0.400837	0.80434
0	O	0.539008	0.637778	0.300929
0	O	0.893359	0.0466144	0.55535
0	O	0.135567	0.99391	0.04984
0	O	0.930188	0.0206695	0.443058
0	O	0.0984345	0.0132714	0.946999
0	O	0.512615	0.430453	0.696572
0	O	0.519088	0.606383	0.19232
0	O	0.601854	0.523463	0.82487
0	O	0.427538	0.51478	0.320642
0	O	0.0158874	0.932693	0.573931
0	O	0.0117491	0.103476	0.0697919
0	C	0.815305	0.773956	0.398863
0	C	0.212008	0.260438	0.901998
0	C	0.758811	0.319385	0.652057
0	C	0.272416	0.717695	0.148477
0	C	0.713184	0.275214	0.868721
0	C	0.316179	0.762228	0.365211
0	C	0.770325	0.818266	0.618354
0	C	0.258025	0.216915	0.114828
0	O	0.863479	0.648027	0.489112
0	O	0.168223	0.391634	0.991448
0	O	0.8867	0.367657	0.741802
0	O	0.143626	0.669119	0.238036
0	O	0.665343	0.145906	0.77908
0	O	0.363078	0.890938	0.275419
0	O	0.644138	0.86866	0.528415
0	O	0.388949	0.169951	0.0256528
0	O	0.955845	0.723348	0.348661
0	O	0.0722018	0.311487	0.851627
0	O	0.810229	0.459191	0.601321
0	O	0.220992	0.577446	0.09812
0	O	0.573242	0.224248	0.9189
0	O	0.456292	0.813304	0.415598
0	O	0.71933	0.958483	0.668851
0	O	0.310235	0.077691	0.165487
0	O	0.682122	0.646941	0.393962
0	O	0.344625	0.387473	0.89571
0	O	0.886107	0.186503	0.646796
0	O	0.14486	0.850263	0.143037
0	O	0.844993	0.147033	0.874263
0	O	0.183595	0.889664	0.370625
0	O	0.643261	0.685056	0.623218
0	O	0.384977	0.349755	0.120875
0	C	0.801248	0.80786	0.36519
0	C	0.225517	0.22547	0.868435
0	C	0.725188	0.304796	0.618407
0	C	0.306406	0.731915	0.114853
0	C	0.7272	0.309608	0.90233
0	C	0.302178	0.728301	0.398873
0	C	0.803976	0.803584	0.652003
0	C	0.223497	0.231012	0.148392
0	C	0.968144	0.890483	0.406013
0	C	0.0590962	0.14472	0.91048
0	C	0.641813	0.471976	0.659817
0	C	0.38849	0.564319	0.156194
0	C	0.560645	0.391897	0.861
0	C	0.468149	0.644975	0.357387
0	C	0.88734	0.971077	0.611225
0	C	0.141717	0.0640075	0.106558
0	C	0.842111	0.695901	0.46472
0	C	0.189324	0.341721	0.967451
0	C	0.83782	0.345553	0.71774
0	C	0.192892	0.69137	0.214063
0	C	0.687248	0.19521	0.803128
0	C	0.341457	0.841791	0.299523
0	C	0.692222	0.846387	0.552638
0	C	0.339003	0.192248	0.049479
0	C	0.741388	0.695862	0.410719
0	C	0.286525	0.339153	0.913032
0	C	0.836946	0.245279	0.6637
0	C	0.193972	0.791663	0.160012
0	C	0.786714	0.196197	0.857237
0	C	0.242198	0.840686	0.353654
0	C	0.692257	0.744432	0.60648
0	C	0.336601	0.291282	0.103654
0	C	0.736568	0.684946	0.448015
0	C	0.293926	0.351789	0.95018
0	C	0.848071	0.239385	0.700956
0	C	0.18266	0.797531	0.197265
0	C	0.792537	0.184468	0.819995
0	C	0.236186	0.852257	0.316418
0	C	0.681378	0.739869	0.569186
0	C	0.349138	0.297996	0.0664841
0	C	0.880587	0.775307	0.342033
0	C	0.146945	0.258573	0.845153
0	C	0.758591	0.383249	0.594963
0	C	0.273379	0.652775	0.0916079
0	C	0.648072	0.276888	0.925495
0	C	0.380894	0.761479	0.422135
0	C	0.771085	0.882685	0.675324
0	C	0.257074	0.152631	0.171809
0	O	0.813545	0.485377	0.436797
0	O	0.218431	0.55188	0.937959
0	O	0.0469631	0.31551	0.689797
0	O	0.983827	0.721455	0.186003
0	O	0.715891	0.98469	0.83141
0	O	0.312758	0.0522259	0.327614
0	O	0.482561	0.816396	0.580511
0	O	0.548104	0.223182	0.0791158
0	O	0.805911	0.618172	0.298434
0	O	0.225449	0.414769	0.801499
0	O	0.918489	0.311066	0.552212
0	O	0.117523	0.728428	0.0487253
0	O	0.726407	0.122181	0.969256
0	O	0.307236	0.920882	0.465462
0	O	0.613529	0.80862	0.718174
0	O	0.412915	0.230063	0.215301
0	O	0.563886	0.0124113	0.335786
0	O	0.465854	0.0233376	0.839782
0	O	0.523829	0.0635539	0.58954
0	O	0.505778	0.9745	0.0854373
0	O	0.968931	0.509449	0.931782
0	O	0.0625164	0.52614	0.42811
0	O	0.00795948	0.56489	0.680999
0	O	0.0213947	0.472122	0.176791
0	C	0.98666	0.815134	0.469659
0	C	0.0474249	0.220324	0.974344
0	C	0.716643	0.488573	0.723522
0	C	0.314992	0.549201	0.220066
0	C	0.545887	0.317853	0.797104
0	C	0.483882	0.720321	0.29364
0	C	0.811524	0.991356	0.547731
0	C	0.217463	0.0499306	0.0428157
0	O	0.734192	0.84231	0.268761
0	O	0.294773	0.19043	0.772219
0	O	0.69821	0.230368	0.522486
0	O	0.339583	0.801228	0.0185221
0	O	0.793862	0.34639	0.998781
0	O	0.231487	0.698517	0.495045
0	O	0.835899	0.732963	0.74821
0	O	0.190141	0.302701	0.24447
0	C	0.871137	0.819536	0.307263
0	C	0.157169	0.214394	0.810411
0	C	0.715639	0.37157	0.56013
0	C	0.317207	0.662761	0.0568442
0	C	0.657515	0.321449	0.960217
0	C	0.37018	0.717984	0.45696
0	C	0.814635	0.872258	0.710119
0	C	0.213026	0.163258	0.206523
0	C	0.664898	0.768031	0.461369
0	C	0.366876	0.269888	0.963497
0	C	0.765362	0.167425	0.714279
0	C	0.265346	0.869593	0.210553
0	C	0.864641	0.267195	0.806675
0	C	0.164276	0.769409	0.303072
0	C	0.763977	0.667997	0.555733
0	C	0.267732	0.371086	0.053022
0	C	0.874178	0.648751	0.281046
0	C	0.156128	0.385444	0.784311
0	C	0.886011	0.377048	0.534202
0	C	0.146813	0.659471	0.0312237
0	C	0.656509	0.150759	0.986362
0	C	0.374174	0.889075	0.483125
0	C	0.644351	0.876105	0.735952
0	C	0.382976	0.160997	0.232632
0	C	0.733562	0.493979	0.451546
0	C	0.299926	0.543207	0.951892
0	C	0.0379262	0.23351	0.703711
0	C	0.992837	0.802975	0.200184
0	C	0.796854	0.993291	0.817184
0	C	0.231399	0.043452	0.313616
0	C	0.49157	0.73613	0.56567
0	C	0.539306	0.304885	0.0650102
0	C	0.619687	0.960569	0.314726
0	C	0.409572	0.073985	0.818544
0	C	0.576592	0.118141	0.568392
0	C	0.454479	0.917951	0.064446
0	C	0.911767	0.458878	0.952772
0	C	0.117836	0.578447	0.44919
0	C	0.955687	0.619959	0.702146
0	C	0.0725363	0.416453	0.19808
0	C	0.587056	0.00298155	0.371786
0	C	0.441648	0.0324768	0.875693
0	C	0.530821	0.0892423	0.625404
0	C	0.499698	0.948777	0.121348
0	C	0.943708	0.502869	0.895851
0	C	0.0871673	0.533702	0.39219
0	C	0.9988	0.588907	0.645038
0	C	0.0303225	0.447321	0.140905
0	C	0.760928	0.849082	0.296821
0	C	0.26749	0.184084	0.800237
0	C	0.68823	0.259628	0.550212
0	C	0.346303	0.773918	0.0465548
0	C	0.76762	0.351567	0.970627
0	C	0.259388	0.689734	0.467157
0	C	0.843694	0.760966	0.720283
0	C	0.183119	0.274516	0.216543
0	C	0.0127463	0.960179	0.43236
0	C	0.0161068	0.0755727	0.937234
0	C	0.571909	0.514682	0.686356
0	C	0.459015	0.522106	0.182646
0	C	0.518374	0.462634	0.834532
0	C	0.510924	0.574944	0.330816
0	C	0.95645	0.0159646	0.584846
0	C	0.0730007	0.0204921	0.0798511
0	C	0.637323	0.898999	0.379592
0	C	0.389445	0.135563	0.883341
0	C	0.632884	0.141735	0.633543
0	C	0.397971	0.895826	0.129611
0	C	0.891037	0.400382	0.887714
0	C	0.139023	0.636656	0.384102
0	C	0.895537	0.639545	0.637246
0	C	0.132793	0.394957	0.133252
0	C	0.938707	0.915893	0.304636
0	C	0.0889494	0.118601	0.807575
0	C	0.619123	0.438264	0.557059
0	C	0.413033	0.595	0.0540507
0	C	0.589513	0.417454	0.962863
0	C	0.437055	0.621209	0.459843
0	C	0.910473	0.940025	0.712975
0	C	0.117604	0.0949251	0.209331
0	C	0.481691	0.021696	0.386659
0	C	0.546643	0.0157433	0.891047
0	C	0.512858	0.983942	0.640895
0	C	0.517367	0.0540555	0.136858
0	C	0.0484344	0.52034	0.880417
0	C	0.98222	0.515676	0.376936
0	C	0.0175067	0.483161	0.629954
0	C	0.0134329	0.552815	0.125438
0	C	0.113032	0.0154288	0.424531
0	C	0.914076	0.0223355	0.930358
0	C	0.516652	0.615773	0.678989
0	C	0.513378	0.420378	0.175462
0	C	0.417167	0.517186	0.841648
0	C	0.611639	0.519685	0.338084
0	C	0.0119257	0.116535	0.592764
0	C	0.0194561	0.918291	0.0869887
0	C	0.951396	0.105323	0.466004
0	C	0.0781036	0.929155	0.97022
0	C	0.426407	0.449653	0.718934
0	C	0.606346	0.587799	0.214319
0	C	0.583191	0.610394	0.80255
0	C	0.446855	0.428791	0.298012
0	C	0.10012	0.953872	0.551024
0	C	0.927961	0.0828561	0.0466637
0	C	0.929252	0.594456	0.254728
0	C	0.10052	0.441074	0.758384
0	C	0.937961	0.431582	0.507294
0	C	0.0908163	0.604041	0.00536489
0	C	0.601529	0.094184	0.0121897
0	C	0.428682	0.941808	0.50988
0	C	0.590284	0.930988	0.762358
0	C	0.437733	0.104995	0.258665
0	C	0.135031	0.106301	0.447253
0	C	0.892113	0.932924	0.953632
0	C	0.424232	0.635217	0.701089
0	C	0.606451	0.40134	0.197319
0	C	0.397653	0.609714	0.819363
0	C	0.631519	0.427597	0.315643
0	C	0.102225	0.138447	0.570033
0	C	0.93058	0.896113	0.0637457
0	C	0.634839	0.18734	0.377367
0	C	0.397233	0.847349	0.880899
0	C	0.34667	0.134842	0.629626
0	C	0.684163	0.904367	0.125005
0	C	0.899644	0.688495	0.891816
0	C	0.132839	0.348557	0.387481
0	C	0.181986	0.637102	0.639705
0	C	0.846421	0.402347	0.135917
0	C	0.541927	0.203191	0.399498
0	C	0.48966	0.832602	0.903314
0	C	0.330605	0.0417139	0.651907
0	C	0.700175	0.996711	0.147594
0	C	0.991294	0.704064	0.869159
0	C	0.0402159	0.332756	0.365222
0	C	0.198084	0.543676	0.617549
0	C	0.831343	0.495406	0.113533
0	C	0.451985	0.136319	0.387771
0	C	0.578726	0.901786	0.892218
0	C	0.399501	0.951968	0.641003
0	C	0.630608	0.0864618	0.137128
0	C	0.0804961	0.63435	0.879792
0	C	0.950937	0.401448	0.376421
0	C	0.131342	0.453094	0.629065
0	C	0.900213	0.585108	0.124503
0	C	0.66892	0.411697	0.466274
0	C	0.368298	0.625596	0.964742
0	C	0.119484	0.165024	0.716951
0	C	0.911244	0.870569	0.213849
0	C	0.863542	0.910823	0.803501
0	C	0.164122	0.125727	0.300109
0	C	0.41024	0.670774	0.550841
0	C	0.621083	0.374041	0.0522975
0	C	0.732993	0.239065	0.389102
0	C	0.29954	0.793554	0.892088
0	C	0.293187	0.233208	0.640789
0	C	0.738753	0.805929	0.135551
0	C	0.80174	0.743178	0.881245
0	C	0.230634	0.295203	0.376174
0	C	0.233429	0.735938	0.628012
0	C	0.792931	0.304033	0.124717
0	C	0.0388077	0.172646	0.452875
0	C	0.987011	0.86409	0.958512
0	C	0.359292	0.53714	0.705606
0	C	0.672241	0.499161	0.201133
0	C	0.494306	0.676548	0.815268
0	C	0.534617	0.361552	0.310947
0	C	0.167547	0.0412659	0.564264
0	C	0.862765	0.991956	0.0586639
0	C	0.84772	0.159054	0.468114
0	C	0.180518	0.872726	0.970778
0	C	0.374102	0.344606	0.720196
0	C	0.659185	0.692667	0.214737
0	C	0.686976	0.664358	0.802198
0	C	0.342873	0.37537	0.296828
0	C	0.152871	0.849206	0.548788
0	C	0.872548	0.186281	0.0458113
0	C	0.892153	0.81163	0.418031
0	C	0.136356	0.223419	0.92172
0	C	0.720969	0.395864	0.671472
0	C	0.309918	0.641012	0.167878
0	C	0.636974	0.312889	0.849319
0	C	0.392155	0.72437	0.345758
0	C	0.808184	0.895471	0.599213
0	C	0.220688	0.14076	0.095207
0	C	0.909075	0.774972	0.450773
0	C	0.122256	0.26086	0.954511
0	C	0.7577	0.412155	0.704224
0	C	0.273355	0.62497	0.200652
0	C	0.621184	0.276111	0.816537
0	C	0.407931	0.761311	0.312984
0	C	0.771417	0.913154	0.566542
0	C	0.258049	0.125565	0.06248
0	C	0.717782	0.864898	0.355913
0	C	0.309325	0.168565	0.859392
0	C	0.668384	0.220537	0.609405
0	C	0.363198	0.815995	0.105701
0	C	0.810894	0.36645	0.911517
0	C	0.21843	0.671463	0.408031
0	C	0.860933	0.71958	0.661117
0	C	0.166449	0.31514	0.15733
0	C	0.697953	0.893244	0.322538
0	C	0.330095	0.140172	0.826097
0	C	0.642447	0.197981	0.576029
0	C	0.38986	0.837293	0.0723029
0	C	0.831418	0.394139	0.944888
0	C	0.197103	0.64462	0.441425
0	C	0.888542	0.698668	0.694475
0	C	0.138693	0.336696	0.190618
0	H	0.931721	0.941332	0.387422
0	H	0.0936734	0.093409	0.89166
0	H	0.591839	0.435804	0.640986
0	H	0.438074	0.599685	0.137118
0	H	0.595889	0.442054	0.879999
0	H	0.432292	0.594337	0.376154
0	H	0.937895	0.93359	0.629664
0	H	0.0907943	0.0998529	0.125216
0	H	0.0321578	0.850055	0.392792
0	H	0.994256	0.185224	0.897671
0	H	0.681179	0.537629	0.646932
0	H	0.348433	0.498449	0.14364
0	H	0.49541	0.351532	0.873639
0	H	0.533118	0.684793	0.370332
0	H	0.847975	0.035617	0.624637
0	H	0.181205	0.998727	0.119599
0	H	0.0104854	0.78364	0.493171
0	H	0.0268605	0.251416	0.998219
0	H	0.747806	0.511964	0.747111
0	H	0.284207	0.526195	0.243742
0	H	0.523371	0.286961	0.773388
0	H	0.506555	0.751594	0.269992
0	H	0.779923	0.0161575	0.524334
0	H	0.248507	0.0282032	0.019046
0	H	0.697876	0.846052	0.459256
0	H	0.33147	0.192826	0.964836
0	H	0.688606	0.202917	0.713864
0	H	0.34189	0.833642	0.210568
0	H	0.82974	0.344626	0.806904
0	H	0.19909	0.691936	0.303514
0	H	0.84138	0.701562	0.557635
0	H	0.191413	0.335033	0.0514055
0	H	0.647742	0.755279	0.487239
0	H	0.392692	0.28952	0.988254
0	H	0.781195	0.145583	0.739653
0	H	0.248713	0.89268	0.235773
0	H	0.886785	0.250778	0.781369
0	H	0.142794	0.785423	0.277681
0	H	0.750812	0.650436	0.529907
0	H	0.287851	0.397384	0.0283447
0	H	0.589202	0.768324	0.449114
0	H	0.438435	0.26302	0.949203
0	H	0.760974	0.093329	0.700933
0	H	0.270691	0.943053	0.196903
0	H	0.938014	0.27149	0.820159
0	H	0.0905766	0.765479	0.316385
0	H	0.764945	0.591932	0.568056
0	H	0.260012	0.442935	0.0673565
0	H	0.595857	0.979037	0.289942
0	H	0.434296	0.0556307	0.793843
0	H	0.560271	0.091667	0.543709
0	H	0.470709	0.943397	0.0396528
0	H	0.936443	0.475802	0.977585
0	H	0.0924862	0.561436	0.473926
0	H	0.973668	0.595122	0.726877
0	H	0.0545824	0.441935	0.222744
0	H	0.670099	0.904606	0.404515
0	H	0.355787	0.129291	0.908133
0	H	0.62487	0.177322	0.658054
0	H	0.406016	0.861064	0.154235
0	H	0.857229	0.407921	0.862976
0	H	0.17332	0.629214	0.359427
0	H	0.901345	0.67333	0.612434
0	H	0.126471	0.360527	0.108537
0	H	0.57668	0.837103	0.381733
0	H	0.449068	0.198373	0.88566
0	H	0.694636	0.0814393	0.636758
0	H	0.335796	0.95581	0.132619
0	H	0.95044	0.337483	0.88503
0	H	0.0791303	0.699004	0.381291
0	H	0.834248	0.578376	0.634832
0	H	0.194913	0.455229	0.130732
0	H	0.908218	0.980262	0.319018
0	H	0.119196	0.0535733	0.821721
0	H	0.556361	0.409125	0.572258
0	H	0.478608	0.628501	0.067049
0	H	0.621987	0.483299	0.949592
0	H	0.408341	0.558057	0.444596
0	H	0.974568	0.909316	0.698657
0	H	0.0529709	0.125943	0.195317
0	H	0.94639	0.94101	0.279411
0	H	0.0807043	0.0944173	0.782277
0	H	0.592522	0.442141	0.531928
0	H	0.434552	0.583218	0.0286505
0	H	0.578205	0.439852	0.98822
0	H	0.441347	0.594129	0.484938
0	H	0.935041	0.947436	0.738249
0	H	0.0938489	0.0862372	0.234645
0	H	0.0183075	0.900147	0.312972
0	H	0.0095745	0.134552	0.816076
0	H	0.634666	0.519596	0.564223
0	H	0.399524	0.516243	0.0638389
0	H	0.511172	0.402867	0.953296
0	H	0.517678	0.637482	0.45262
0	H	0.895186	0.0202833	0.704689
0	H	0.132965	0.0151079	0.200662
0	H	0.422118	0.977985	0.372725
0	H	0.605959	0.0609961	0.877488
0	H	0.559078	0.923838	0.627944
0	H	0.471262	0.114161	0.12385
0	H	0.108056	0.474492	0.893654
0	H	0.922651	0.561303	0.390263
0	H	0.973589	0.422968	0.643624
0	H	0.0587742	0.612656	0.138798
0	H	0.47952	0.986603	0.411232
0	H	0.546726	0.0505424	0.915672
0	H	0.544953	0.984448	0.665829
0	H	0.484925	0.053454	0.161748
0	H	0.0482283	0.486817	0.855637
0	H	0.981796	0.549053	0.352134
0	H	0.98332	0.481683	0.605287
0	H	0.0473588	0.552513	0.100732
0	H	0.178341	0.958566	0.425728
0	H	0.850059	0.0806133	0.931841
0	H	0.572453	0.681845	0.681269
0	H	0.457211	0.35478	0.17822
0	H	0.352186	0.460278	0.839251
0	H	0.676999	0.576248	0.336042
0	H	0.955736	0.18257	0.591637
0	H	0.0769918	0.853468	0.085703
0	H	0.112007	0.0405603	0.398909
0	H	0.912577	0.99619	0.90484
0	H	0.493946	0.617029	0.653157
0	H	0.53506	0.417845	0.149557
0	H	0.415032	0.540296	0.86744
0	H	0.612766	0.495824	0.363822
0	H	0.0369514	0.115131	0.618375
0	H	0.993366	0.917653	0.112496
0	H	0.973147	0.0672814	0.489136
0	H	0.0609194	0.967736	0.993699
0	H	0.462037	0.471059	0.742453
0	H	0.571832	0.567905	0.238125
0	H	0.56428	0.574683	0.778812
0	H	0.467315	0.465469	0.274542
0	H	0.0625029	0.976304	0.527917
0	H	0.966081	0.0645838	0.0232229
0	H	0.910742	0.511495	0.254478
0	H	0.119799	0.523851	0.758283
0	H	0.0217908	0.421837	0.508519
0	H	0.00912296	0.625541	0.00498313
0	H	0.623017	0.011987	0.0125481
0	H	0.420098	0.0262616	0.508293
0	H	0.507824	0.912579	0.762473
0	H	0.520045	0.124019	0.258825
0	H	0.0141504	0.603801	0.257027
0	H	0.0156571	0.432431	0.761029
0	H	0.92011	0.516027	0.507437
0	H	0.097249	0.518578	0.00838265
0	H	0.51661	0.100601	0.00919832
0	H	0.512347	0.922781	0.50994
0	H	0.599755	0.0164816	0.760251
0	H	0.428856	0.0195873	0.256075
0	H	0.911525	0.626968	0.230607
0	H	0.116891	0.409103	0.734091
0	H	0.911285	0.404576	0.483371
0	H	0.123453	0.618548	0.981049
0	H	0.616059	0.126991	0.0365077
0	H	0.401022	0.916287	0.533849
0	H	0.622259	0.912558	0.786473
0	H	0.40584	0.121763	0.282917
0	H	0.164599	0.075478	0.470516
0	H	0.86594	0.965393	0.977075
0	H	0.452373	0.663818	0.724789
0	H	0.578997	0.374156	0.221254
0	H	0.370927	0.580758	0.795548
0	H	0.659536	0.457011	0.292026
0	H	0.071675	0.168678	0.54682
0	H	0.962734	0.86909	0.0403638
0	H	0.198014	0.154211	0.437163
0	H	0.826805	0.886439	0.944388
0	H	0.376626	0.698608	0.691001
0	H	0.653231	0.3371	0.187369
0	H	0.333446	0.656767	0.829079
0	H	0.69496	0.379827	0.325515
0	H	0.150242	0.201453	0.580181
0	H	0.884032	0.830803	0.073112
0	H	0.61657	0.207818	0.35191
0	H	0.41693	0.827968	0.855452
0	H	0.328112	0.115433	0.604109
0	H	0.701698	0.925053	0.0995038
0	H	0.920392	0.706725	0.917271
0	H	0.113708	0.329244	0.41297
0	H	0.202112	0.618668	0.665173
0	H	0.827413	0.422018	0.161391
0	H	0.562153	0.181966	0.424632
0	H	0.468061	0.852278	0.928461
0	H	0.349057	0.0630789	0.677167
0	H	0.68237	0.974292	0.172804
0	H	0.96899	0.685463	0.844001
0	H	0.0611547	0.352195	0.340003
0	H	0.177578	0.564225	0.59238
0	H	0.850433	0.473686	0.0883468
0	H	0.519974	0.285938	0.400064
0	H	0.513425	0.750334	0.90357
0	H	0.248745	0.0182335	0.651834
0	H	0.781905	0.0206743	0.147428
0	H	0.0150851	0.786352	0.869118
0	H	0.0171504	0.250273	0.365064
0	H	0.280289	0.521505	0.617126
0	H	0.749588	0.519299	0.113402
0	H	0.426215	0.161095	0.36337
0	H	0.606603	0.877955	0.867949
0	H	0.377745	0.925125	0.616415
0	H	0.652201	0.114664	0.112664
0	H	0.108664	0.656879	0.904162
0	H	0.924428	0.378483	0.400924
0	H	0.155396	0.426943	0.653502
0	H	0.877024	0.613111	0.148827
0	H	0.38445	0.146277	0.4038
0	H	0.645441	0.893148	0.908661
0	H	0.389166	0.884163	0.657072
0	H	0.640551	0.153577	0.153498
0	H	0.147049	0.643885	0.863351
0	H	0.883567	0.391423	0.360337
0	H	0.141514	0.385257	0.612997
0	H	0.891275	0.65226	0.108076
0	H	0.665147	0.342399	0.450843
0	H	0.373768	0.691737	0.948063
0	H	0.185923	0.160022	0.700552
0	H	0.844651	0.87629	0.197533
0	H	0.868248	0.843339	0.81967
0	H	0.159641	0.193196	0.31629
0	H	0.341276	0.666583	0.566208
0	H	0.686563	0.379659	0.0690586
0	H	0.590106	0.437894	0.471459
0	H	0.446392	0.59767	0.970092
0	H	0.0918427	0.0862146	0.722055
0	H	0.938783	0.949148	0.21934
0	H	0.941991	0.937943	0.798252
0	H	0.0856119	0.0983917	0.295063
0	H	0.436667	0.59159	0.545631
0	H	0.593172	0.452579	0.0469512
0	H	0.70275	0.385843	0.489722
0	H	0.336251	0.65746	0.987747
0	H	0.149667	0.196914	0.740171
0	H	0.88139	0.837374	0.236925
0	H	0.830886	0.881646	0.780269
0	H	0.196086	0.155044	0.276797
0	H	0.384555	0.704799	0.527391
0	H	0.653139	0.342041	0.0293098
0	H	0.724153	0.32329	0.391284
0	H	0.309529	0.709386	0.893991
0	H	0.209529	0.223271	0.642434
0	H	0.82234	0.816595	0.137082
0	H	0.812074	0.827365	0.879718
0	H	0.221093	0.210949	0.374463
0	H	0.317144	0.727157	0.625998
0	H	0.709272	0.313998	0.123017
0	H	0.797196	0.223552	0.372541
0	H	0.235725	0.808645	0.875338
0	H	0.308907	0.297641	0.624185
0	H	0.723282	0.742234	0.118656
0	H	0.738505	0.727466	0.898151
0	H	0.294734	0.311106	0.392743
0	H	0.217554	0.800669	0.644491
0	H	0.808425	0.239577	0.141344
0	H	0.757715	0.208511	0.41283
0	H	0.273344	0.822943	0.91581
0	H	0.321635	0.25901	0.664669
0	H	0.711042	0.778671	0.159353
0	H	0.774654	0.715184	0.857462
0	H	0.256028	0.324136	0.352312
0	H	0.203516	0.76055	0.604194
0	H	0.821607	0.278095	0.100883
0	H	0.0146863	0.210118	0.430008
0	H	0.00695086	0.824297	0.935625
0	H	0.324603	0.513404	0.68231
0	H	0.706189	0.521493	0.177591
0	H	0.515855	0.712443	0.838624
0	H	0.511685	0.325252	0.334105
0	H	0.204676	0.0164239	0.587083
0	H	0.823602	0.0129614	0.081524
0	H	0.0553797	0.236445	0.469931
0	H	0.970585	0.801957	0.97618
0	H	0.294058	0.551868	0.722144
0	H	0.738008	0.484696	0.217488
0	H	0.479496	0.741595	0.798501
0	H	0.549686	0.296819	0.294086
0	H	0.230977	0.0578357	0.547216
0	H	0.800805	0.975356	0.0410824
0	H	0.844715	0.215317	0.487999
0	H	0.183258	0.813331	0.989741
0	H	0.316305	0.340388	0.739527
0	H	0.717714	0.697893	0.233822
0	H	0.691986	0.722972	0.783024
0	H	0.338831	0.317547	0.277396
0	H	0.208592	0.845967	0.528857
0	H	0.814145	0.189126	0.0266582
0	H	0.785695	0.10275	0.472595
0	H	0.244405	0.926435	0.975757
0	H	0.430097	0.282499	0.724941
0	H	0.603494	0.755174	0.219366
0	H	0.749561	0.608723	0.797695
0	H	0.280693	0.431342	0.292214
0	H	0.0965247	0.787136	0.54437
0	H	0.92648	0.250175	0.0409573
0	H	0.827169	0.199066	0.445488
0	H	0.198682	0.835843	0.947455
0	H	0.336527	0.324386	0.697152
0	H	0.695794	0.711364	0.19142
0	H	0.704986	0.701669	0.825481
0	H	0.323372	0.337064	0.319836
0	H	0.192782	0.828145	0.571353
0	H	0.835252	0.205108	0.068992
