#******************************************
#
# CIF file created by Zeo++
# Zeo++ is an open source package to
# analyze microporous materials
#
#*******************************************

_cell_length_a		14.708(0)
_cell_length_b		14.1029(0)
_cell_length_c		16.4347(0)
_cell_angle_alpha		90(0)
_cell_angle_beta		111.102(0)
_cell_angle_gamma		90(0)

_symmetry_space_group_name_H-M		'P1'
_symmetry_Int_Tables_number		1
_symmetry_cell_setting		Monoclinic

loop_
_symmetry_equiv_pos_as_xyz
'+x,+y,+z'

loop_
_atom_site_label
_atom_site_type_symbol
_atom_site_fract_x
_atom_site_fract_y
_atom_site_fract_z
0	Cl	0.578555	0.171731	0.818591
0	Cl	0.75412	0.649116	0.618181
0	Cl	0.341915	0.802908	0.16902
0	Cl	0.166135	0.325856	0.369545
0	Cl	0.57478	0.291443	0.666405
0	Cl	0.764006	0.725861	0.788627
0	Cl	0.345921	0.682953	0.321257
0	Cl	0.156029	0.249413	0.198941
0	Cl	0.758236	0.412786	0.696389
0	Cl	0.647707	0.895817	0.801364
0	Cl	0.161999	0.562393	0.291472
0	Cl	0.272406	0.0795427	0.185952
0	Cl	0.832534	0.54759	0.855808
0	Cl	0.627033	0.070721	0.692049
0	Cl	0.0871754	0.427569	0.131978
0	Cl	0.293195	0.904541	0.295047
0	Cl	0.657104	0.596893	0.924944
0	Cl	0.744533	0.100451	0.58159
0	Cl	0.262638	0.377934	0.0628147
0	Cl	0.175624	0.874492	0.405498
0	Cl	0.617586	0.433127	0.0269237
0	Cl	0.773949	0.951752	0.463182
0	Cl	0.302277	0.541497	0.960781
0	Cl	0.146554	0.0230189	0.524288
0	Cl	0.965716	0.0617279	0.27188
0	Cl	0.504024	0.534799	0.198268
0	Cl	0.954077	0.912946	0.715676
0	Cl	0.41635	0.439827	0.789497
0	Cl	0.0294402	0.944739	0.104526
0	Cl	0.426428	0.441592	0.382543
0	Cl	0.89046	0.0301238	0.883117
0	Cl	0.494006	0.533206	0.605351
0	Cl	0.0317942	0.728801	0.0894488
0	Cl	0.42518	0.224544	0.407988
0	Cl	0.888322	0.246103	0.898278
0	Cl	0.494889	0.750226	0.579674
0	Cl	0.886344	0.605124	0.143046
0	Cl	0.559246	0.0967953	0.347348
0	Cl	0.0336368	0.369661	0.844496
0	Cl	0.360528	0.877812	0.640086
0	Cl	0.735552	0.702242	0.207199
0	Cl	0.724341	0.188967	0.295454
0	Cl	0.184304	0.272428	0.780199
0	Cl	0.195521	0.785508	0.691946
0	Cl	0.723538	0.920137	0.212286
0	Cl	0.737144	0.406442	0.284812
0	Cl	0.196158	0.0545838	0.77504
0	Cl	0.183078	0.567974	0.702861
0	C	0.674497	0.309602	0.929357
0	C	0.708746	0.816916	0.541721
0	C	0.24545	0.665224	0.0582663
0	C	0.211647	0.157953	0.445775
0	C	0.637996	0.282226	0.841296
0	C	0.731053	0.772859	0.626805
0	C	0.28218	0.692565	0.146343
0	C	0.189204	0.202139	0.360732
0	C	0.640934	0.331347	0.76997
0	C	0.727728	0.803174	0.703338
0	C	0.279296	0.643427	0.217675
0	C	0.192398	0.171971	0.284113
0	C	0.70614	0.409142	0.77689
0	C	0.688459	0.893962	0.716131
0	C	0.213899	0.565819	0.210835
0	C	0.231644	0.0812299	0.271185
0	C	0.734052	0.474087	0.841457
0	C	0.679012	0.972797	0.666268
0	C	0.185783	0.500885	0.146274
0	C	0.241137	0.00231665	0.320956
0	C	0.688143	0.48359	0.906081
0	C	0.714098	0.985367	0.594326
0	C	0.231607	0.491272	0.0816008
0	C	0.2061	0.989596	0.392909
0	C	0.667743	0.408851	0.947911
0	C	0.725623	0.918411	0.539732
0	C	0.252072	0.565945	0.039733
0	C	0.194711	0.0564585	0.447647
0	C	0.820245	0.095481	0.118712
0	C	0.613379	0.591158	0.359209
0	C	0.0996675	0.879296	0.868792
0	C	0.306953	0.383487	0.628557
0	C	0.730627	0.0715172	0.0435155
0	C	0.665189	0.576445	0.453093
0	C	0.189322	0.903261	0.943964
0	C	0.255035	0.398305	0.534706
0	C	0.691356	0.146815	0.995877
0	C	0.694763	0.653387	0.503866
0	C	0.228523	0.827986	0.991672
0	C	0.225598	0.321422	0.483842
0	C	0.705731	0.241206	0.998454
0	C	0.682149	0.752828	0.474505
0	C	0.214202	0.733597	0.989153
0	C	0.238362	0.221941	0.513077
0	C	0.770639	0.265786	0.0889037
0	C	0.6411	0.764742	0.38058
0	C	0.149375	0.709012	0.898672
0	C	0.279534	0.20989	0.606982
0	C	0.828177	0.197957	0.140975
0	C	0.607268	0.689452	0.327259
0	C	0.0918259	0.776798	0.84655
0	C	0.313201	0.285141	0.660404
0	C	0.878688	0.0289593	0.171236
0	C	0.571809	0.517065	0.30565
0	C	0.0411432	0.94578	0.816289
0	C	0.34855	0.457564	0.682137
0	C	0.877782	0.92594	0.159492
0	C	0.57789	0.415529	0.329246
0	C	0.0420162	0.0488153	0.827989
0	C	0.342388	0.559089	0.65849
0	C	0.946426	0.880259	0.131507
0	C	0.509342	0.373103	0.359286
0	C	0.973431	0.094546	0.856029
0	C	0.410905	0.601581	0.62845
0	C	0.948896	0.78094	0.125169
0	C	0.506981	0.274553	0.369065
0	C	0.971036	0.193868	0.862389
0	C	0.413109	0.700128	0.618565
0	C	0.883248	0.725463	0.148695
0	C	0.571311	0.216411	0.346115
0	C	0.0366509	0.249323	0.838782
0	C	0.348635	0.758182	0.641406
0	C	0.814466	0.769761	0.176854
0	C	0.643439	0.257877	0.32034
0	C	0.105334	0.204982	0.810537
0	C	0.27653	0.716646	0.667167
0	C	0.810992	0.868763	0.180855
0	C	0.647242	0.356909	0.313494
0	C	0.108751	0.105974	0.806532
0	C	0.272895	0.617618	0.674127
0	H	0.698102	0.00227394	0.0398285
0	H	0.676473	0.503757	0.478179
0	H	0.221955	0.972437	0.947531
0	H	0.24354	0.471024	0.509711
0	H	0.77928	0.340165	0.107686
0	H	0.636743	0.836652	0.354305
0	H	0.140848	0.634634	0.879884
0	H	0.284114	0.13791	0.633148
0	H	0.88346	0.218214	0.203001
0	H	0.572856	0.700873	0.25654
0	H	0.0366432	0.756511	0.784487
0	H	0.347565	0.27365	0.731117
