#******************************************
#
# CIF file created by Zeo++
# Zeo++ is an open source package to
# analyze microporous materials
#
#*******************************************

_cell_length_a		10.2164(0)
_cell_length_b		13.4768(0)
_cell_length_c		27.8544(0)
_cell_angle_alpha		89.1517(0)
_cell_angle_beta		83.3615(0)
_cell_angle_gamma		79.8146(0)

_symmetry_space_group_name_H-M		'P1'
_symmetry_Int_Tables_number		1
_symmetry_cell_setting		Triclinic

loop_
_symmetry_equiv_pos_as_xyz
'+x,+y,+z'

loop_
_atom_site_label
_atom_site_type_symbol
_atom_site_fract_x
_atom_site_fract_y
_atom_site_fract_z
0	N	0.473055	0.107793	0.0613349
0	N	0.565309	0.891046	0.931212
0	N	0.508232	0.159636	0.262994
0	N	0.530221	0.839148	0.729555
0	N	0.50227	0.329733	0.199575
0	N	0.536183	0.669072	0.792977
0	N	0.466398	0.310116	0.102022
0	N	0.57198	0.688715	0.890533
0	N	0.966622	0.311786	0.215645
0	N	0.0719619	0.687045	0.77689
0	N	0.749933	0.380445	0.414335
0	N	0.288575	0.618374	0.578181
0	N	0.911457	0.17875	0.382757
0	N	0.127234	0.820157	0.609792
0	N	0.0305481	0.153744	0.287161
0	N	0.00794965	0.845084	0.705365
0	C	0.59482	0.109354	0.0305108
0	C	0.44349	0.889505	0.962011
0	C	0.718613	0.0968689	0.0498629
0	C	0.319733	0.902029	0.942641
0	H	0.72193	0.0961727	0.0887698
0	H	0.316469	0.902754	0.903732
0	C	0.837943	0.0864292	0.0190216
0	C	0.200357	0.912454	0.973461
0	H	0.93282	0.0762361	0.0344095
0	H	0.105506	0.922659	0.958058
0	C	0.837198	0.0892641	0.96891
0	C	0.201054	0.90958	0.0235754
0	H	0.930373	0.0823059	0.9451
0	H	0.107837	0.916521	0.047363
0	C	0.714691	0.102205	0.949668
0	C	0.323532	0.896601	0.0428431
0	H	0.713035	0.104338	0.910621
0	H	0.325147	0.894429	0.0818918
0	C	0.594347	0.112303	0.979768
0	C	0.443899	0.886507	0.012757
0	H	0.500704	0.12017	0.963776
0	H	0.537525	0.878593	0.0287649
0	C	0.346159	0.15607	0.0425884
0	C	0.692143	0.842656	0.949968
0	H	0.260627	0.152952	0.0702217
0	H	0.777695	0.845719	0.922334
0	H	0.331758	0.112477	0.0108379
0	H	0.706599	0.886212	0.981725
0	H	0.345042	0.235511	0.0322083
0	H	0.693151	0.76322	0.960336
0	C	0.474361	0.128287	0.112277
0	C	0.564029	0.870548	0.880266
0	C	0.475022	0.0475187	0.143469
0	C	0.56338	0.951302	0.849066
0	H	0.471901	0.972737	0.129363
0	H	0.566506	0.0260883	0.863171
0	C	0.479281	0.0587644	0.193556
0	C	0.559124	0.940059	0.798982
0	H	0.475006	0.992078	0.215964
0	H	0.563394	0.00672555	0.776562
0	C	0.486805	0.150933	0.214012
0	C	0.551628	0.847875	0.778535
0	C	0.486633	0.237582	0.182082
0	C	0.551811	0.761231	0.810468
0	C	0.475703	0.226304	0.1318
0	C	0.562716	0.772519	0.86075
0	C	0.516548	0.0666781	0.292973
0	C	0.521811	0.932083	0.69956
0	H	0.535249	0.0839915	0.329955
0	H	0.503641	0.914671	0.662528
0	H	0.601922	0.00995752	0.277505
0	H	0.436064	0.988608	0.714929
0	H	0.424213	0.0338302	0.295989
0	H	0.613911	0.965215	0.696684
0	C	0.440113	0.248971	0.290371
0	C	0.59827	0.749784	0.702186
0	C	0.302005	0.283341	0.290419
0	C	0.736373	0.715377	0.70213
0	H	0.243491	0.24409	0.269155
0	H	0.794925	0.754617	0.723389
0	C	0.240729	0.368268	0.31789
0	C	0.797601	0.630442	0.674659
0	H	0.133755	0.395588	0.317757
0	H	0.904563	0.603076	0.674792
0	C	0.315757	0.417869	0.345461
0	C	0.722542	0.580882	0.647088
0	H	0.266967	0.483939	0.366743
0	H	0.771291	0.514817	0.625798
0	C	0.453277	0.382903	0.345326
0	C	0.58502	0.615865	0.64724
0	H	0.512755	0.421762	0.366408
0	H	0.525517	0.577027	0.626164
0	C	0.516396	0.298436	0.317867
0	C	0.52194	0.700334	0.674709
0	H	0.623921	0.272096	0.316869
0	H	0.414407	0.72667	0.675721
0	C	0.50194	0.40869	0.169906
0	C	0.536529	0.59012	0.822643
0	C	0.532784	0.500883	0.190863
0	C	0.505732	0.497922	0.801685
0	C	0.482979	0.520472	0.239888
0	C	0.555611	0.47832	0.752666
0	H	0.412309	0.475446	0.257726
0	H	0.626311	0.523336	0.73484
0	C	0.525036	0.59352	0.266216
0	C	0.513591	0.405284	0.726329
0	H	0.484965	0.608247	0.303892
0	H	0.553725	0.390547	0.688659
0	C	0.621824	0.645764	0.243822
0	C	0.416708	0.353087	0.748688
0	H	0.661576	0.699539	0.264337
0	H	0.37697	0.299342	0.728159
0	C	0.667172	0.629366	0.194976
0	C	0.37124	0.369512	0.797524
0	H	0.744788	0.670317	0.179088
0	H	0.29353	0.328627	0.813385
0	C	0.617875	0.561715	0.166457
0	C	0.420566	0.437122	0.826067
0	C	0.659677	0.56048	0.111946
0	C	0.378739	0.438339	0.880574
0	C	0.544756	0.557837	0.0813231
0	C	0.493622	0.44097	0.911213
0	C	0.524241	0.62863	0.0439948
0	C	0.514166	0.370119	0.948513
0	H	0.591632	0.682492	0.0352749
0	H	0.446863	0.316175	0.957178
0	C	0.419799	0.632599	0.0154867
0	C	0.618524	0.366197	0.977067
0	H	0.40824	0.688982	0.986883
0	H	0.630095	0.309778	0.00564949
0	C	0.33162	0.564209	0.0231355
0	C	0.706622	0.43465	0.969464
0	H	0.250218	0.566788	0.000783917
0	H	0.787938	0.432116	0.991853
0	C	0.352512	0.491011	0.0585112
0	C	0.6858	0.507826	0.934071
0	H	0.286843	0.435042	0.0638703
0	H	0.751467	0.563794	0.928718
0	C	0.459127	0.486255	0.0869898
0	C	0.579229	0.512579	0.905575
0	C	0.477239	0.399469	0.119937
0	C	0.561175	0.599362	0.872619
0	C	0.778572	0.475629	0.0962112
0	C	0.259817	0.523186	0.89632
0	C	0.79179	0.372269	0.101742
0	C	0.246657	0.62654	0.8908
0	H	0.715	0.337061	0.121961
0	H	0.323448	0.661766	0.870605
0	C	0.909827	0.309616	0.0813213
0	C	0.128551	0.689202	0.911187
0	H	0.918358	0.228046	0.085492
0	H	0.120019	0.770772	0.90702
0	C	0.0141857	0.350195	0.0565578
0	C	0.0241097	0.648615	0.935901
0	H	0.104139	0.300824	0.040424
0	H	0.934096	0.697969	0.951985
0	C	0.00454401	0.45523	0.0523048
0	C	0.0338003	0.543569	0.940157
0	H	0.0868508	0.487386	0.0336711
0	H	0.951455	0.511429	0.95875
0	C	0.88819	0.51684	0.0721866
0	C	0.150198	0.48198	0.92031
0	C	0.854112	0.627262	0.0737211
0	C	0.184296	0.371558	0.918793
0	C	0.928595	0.700162	0.0568873
0	C	0.109832	0.29866	0.93564
0	H	0.0298926	0.678912	0.0387845
0	H	0.00851717	0.319911	0.953742
0	C	0.870479	0.802128	0.0638178
0	C	0.167941	0.196693	0.928717
0	H	0.927292	0.860313	0.0505313
0	H	0.111155	0.13851	0.942024
0	C	0.741056	0.829732	0.0873745
0	C	0.297309	0.169087	0.905111
0	H	0.697585	0.909487	0.0923482
0	H	0.340734	0.0893324	0.900122
0	C	0.665716	0.756234	0.10457
0	C	0.372628	0.242589	0.88789
0	H	0.564682	0.778044	0.122796
0	H	0.473598	0.220764	0.869615
0	C	0.722221	0.655085	0.0975915
0	C	0.316153	0.343724	0.894905
0	C	0.968047	0.215877	0.193408
0	C	0.0703555	0.782977	0.799142
0	C	0.848789	0.175236	0.200414
0	C	0.189583	0.823664	0.792222
0	H	0.763047	0.212956	0.224514
0	H	0.275417	0.785975	0.768156
0	C	0.84053	0.0876786	0.175936
0	C	0.19766	0.911226	0.816742
0	H	0.748196	0.0567479	0.181401
0	H	0.28998	0.942189	0.811356
0	C	0.949059	0.0394345	0.144312
0	C	0.0889205	0.95944	0.848285
0	H	0.941247	0.971107	0.12544
0	H	0.0965764	0.0277787	0.867186
0	C	0.0668366	0.0794095	0.13761
0	C	0.971151	0.919452	0.854875
0	H	0.152116	0.0420263	0.113271
0	H	0.885694	0.956842	0.879136
0	C	0.0776168	0.166918	0.16205
0	C	0.960586	0.831916	0.830419
0	H	0.171479	0.195283	0.157146
0	H	0.866737	0.803528	0.835236
0	C	0.0750266	0.368203	0.197531
0	C	0.963651	0.630531	0.794993
0	H	0.0535556	0.444861	0.213097
0	H	0.985294	0.553848	0.779457
0	H	0.0764694	0.376454	0.157881
0	H	0.962143	0.622344	0.834648
0	H	0.175055	0.331513	0.205845
0	H	0.863601	0.66709	0.786646
0	C	0.923801	0.323747	0.266571
0	C	0.114792	0.675122	0.725965
0	C	0.849664	0.415714	0.28295
0	C	0.18895	0.583166	0.709585
0	H	0.826551	0.477006	0.257259
0	H	0.212083	0.521858	0.735266
0	C	0.797959	0.431491	0.331993
0	C	0.240634	0.567394	0.66054
0	H	0.739885	0.505664	0.342701
0	H	0.298666	0.493206	0.649835
0	C	0.816169	0.355916	0.366311
0	C	0.222427	0.642951	0.626212
0	C	0.892559	0.258812	0.350888
0	C	0.14606	0.740058	0.641645
0	C	0.949268	0.244232	0.3015
0	C	0.0892868	0.754619	0.691029
0	C	0.699044	0.297374	0.442243
0	C	0.339266	0.701434	0.550195
0	H	0.776975	0.24715	0.459787
0	H	0.261177	0.751621	0.53271
0	H	0.656072	0.250782	0.417993
0	H	0.38242	0.748067	0.574376
0	H	0.618473	0.329957	0.47051
0	H	0.41965	0.66884	0.521867
0	C	0.798139	0.452261	0.442214
0	C	0.240276	0.546512	0.55036
0	C	0.909108	0.496894	0.424708
0	C	0.12938	0.501864	0.567943
0	H	0.969609	0.471318	0.390991
0	H	0.0689841	0.527461	0.601678
0	C	0.942948	0.57397	0.451088
0	C	0.095442	0.424756	0.541621
0	H	0.0289789	0.608115	0.437461
0	H	0.00948622	0.390591	0.555314
0	C	0.86849	0.607363	0.494982
0	C	0.16965	0.391384	0.49768
0	H	0.89598	0.667232	0.515323
0	H	0.142061	0.331505	0.477381
0	C	0.75988	0.562062	0.512764
0	C	0.278127	0.436737	0.479801
0	H	0.701828	0.587234	0.54712
0	H	0.335946	0.411621	0.445398
0	C	0.724396	0.484993	0.486964
0	C	0.313763	0.513807	0.505566
0	H	0.639432	0.45043	0.501315
0	H	0.398636	0.5484	0.491138
0	C	0.983183	0.0896941	0.367572
0	C	0.0553938	0.909186	0.62497
0	C	0.98747	0.0067518	0.402993
0	C	0.0510625	0.992124	0.589545
0	C	0.866066	0.00463206	0.432694
0	C	0.172447	0.994303	0.559845
0	H	0.776512	0.0581283	0.425955
0	H	0.262043	0.940876	0.566608
0	C	0.85895	0.937332	0.470815
0	C	0.179473	0.0615117	0.52168
0	H	0.765279	0.937103	0.493946
0	H	0.273103	0.0617625	0.498532
0	C	0.974994	0.871501	0.480076
0	C	0.0633385	0.127195	0.512388
0	H	0.973058	0.82096	0.51105
0	H	0.0651899	0.177623	0.481368
0	C	0.0939002	0.871499	0.450077
0	C	0.944444	0.127173	0.542391
0	H	0.182119	0.819927	0.459571
0	H	0.856151	0.178615	0.532868
0	C	0.102798	0.936201	0.409975
0	C	0.935646	0.06255	0.582529
0	C	0.237972	0.92813	0.378772
0	C	0.800467	0.0706073	0.613731
0	C	0.233421	0.924695	0.324187
0	C	0.805048	0.0741475	0.668315
0	C	0.332026	0.85487	0.296716
0	C	0.706503	0.144045	0.695771
0	H	0.416831	0.81297	0.313257
0	H	0.621695	0.185933	0.679228
0	C	0.326866	0.836209	0.247949
0	C	0.711717	0.162779	0.744528
0	H	0.403576	0.779485	0.228496
0	H	0.635079	0.219586	0.763964
0	C	0.22271	0.889176	0.224416
0	C	0.815766	0.109711	0.768083
0	H	0.214632	0.873321	0.18676
0	H	0.823861	0.125578	0.805737
0	C	0.130525	0.964231	0.249613
0	C	0.907816	0.0345495	0.74291
0	H	0.052046	0.00938517	0.230713
0	H	0.986169	0.989294	0.761834
0	C	0.137831	0.98518	0.298734
0	C	0.900573	0.013624	0.693783
0	C	0.0486014	0.0775187	0.31829
0	C	0.989851	0.921304	0.674235
0	C	0.310659	0.0111562	0.394114
0	C	0.72789	0.987496	0.598428
0	C	0.27786	0.114784	0.390195
0	C	0.760817	0.883876	0.602373
0	H	0.193125	0.150818	0.372183
0	H	0.845598	0.847913	0.620381
0	C	0.35723	0.175735	0.40988
0	C	0.68151	0.822828	0.582733
0	H	0.331122	0.257534	0.406718
0	H	0.707721	0.741037	0.585923
0	C	0.467902	0.133141	0.432678
0	C	0.570769	0.865281	0.559949
0	H	0.527618	0.181563	0.447953
0	H	0.511056	0.816768	0.544738
0	C	0.504294	0.0279187	0.435963
0	C	0.534261	0.970483	0.556613
0	H	0.591619	0.99438	0.453412
0	H	0.446893	0.00392122	0.539166
0	C	0.426324	0.967932	0.416622
0	C	0.612182	0.0305885	0.575916
0	C	0.441157	0.857714	0.415264
0	C	0.597241	0.140813	0.577218
0	C	0.539589	0.783259	0.430673
0	C	0.498742	0.215175	0.561779
0	H	0.62364	0.802793	0.446978
0	H	0.414727	0.195552	0.545491
0	C	0.528919	0.682021	0.42427
0	C	0.509309	0.316457	0.568142
0	H	0.606419	0.622535	0.435612
0	H	0.431741	0.375855	0.556774
0	C	0.421464	0.656701	0.403268
0	C	0.61669	0.341911	0.589141
0	H	0.414691	0.57758	0.398816
0	H	0.623376	0.421055	0.593573
0	C	0.321751	0.731701	0.387699
0	C	0.716466	0.266984	0.604732
0	H	0.238257	0.711651	0.371203
0	H	0.799919	0.287134	0.621224
0	C	0.332335	0.832121	0.39351
0	C	0.706016	0.166532	0.598962
