#******************************************
#
# CIF file created by Zeo++
# Zeo++ is an open source package to
# analyze microporous materials
#
#*******************************************

_cell_length_a		26.8362(0)
_cell_length_b		26.8016(0)
_cell_length_c		10.3138(0)
_cell_angle_alpha		90(0)
_cell_angle_beta		90(0)
_cell_angle_gamma		120.135(0)

_symmetry_space_group_name_H-M		'P1'
_symmetry_Int_Tables_number		1
_symmetry_cell_setting		Monoclinic

loop_
_symmetry_equiv_pos_as_xyz
'+x,+y,+z'

loop_
_atom_site_label
_atom_site_type_symbol
_atom_site_fract_x
_atom_site_fract_y
_atom_site_fract_z
0	O	0.0674617	0.127212	0.543927
0	O	0.887215	0.946512	0.54113
0	O	0.0669477	0.947895	0.545583
0	O	0.947266	0.887322	0.540556
0	O	0.127408	0.0678898	0.542667
0	O	0.947775	0.0665235	0.540037
0	O	0.733587	0.458734	0.87377
0	O	0.555775	0.280212	0.872659
0	O	0.734829	0.280331	0.872609
0	O	0.615448	0.220601	0.872138
0	O	0.793823	0.399781	0.871441
0	O	0.614225	0.399481	0.873279
0	O	0.399141	0.793955	0.212499
0	O	0.220696	0.614691	0.213183
0	O	0.400372	0.614993	0.211316
0	O	0.281002	0.555829	0.210759
0	O	0.458737	0.73425	0.211918
0	O	0.279765	0.734153	0.21211
0	H	0.0875299	0.103536	0.555396
0	H	0.911411	0.990407	0.551261
0	H	0.0231211	0.927961	0.556256
0	H	0.927136	0.910925	0.528837
0	H	0.103149	0.023976	0.532873
0	H	0.991606	0.086526	0.529328
0	H	0.753224	0.434594	0.883591
0	H	0.579619	0.32403	0.884319
0	H	0.691026	0.260533	0.882963
0	H	0.59556	0.244473	0.861395
0	H	0.77017	0.355896	0.860576
0	H	0.658052	0.419339	0.863114
0	H	0.418988	0.770046	0.223235
0	H	0.244363	0.658573	0.224056
0	H	0.356552	0.595164	0.221512
0	H	0.261338	0.579943	0.200967
0	H	0.434914	0.69043	0.200255
0	H	0.323574	0.753982	0.20178
0	O	0.0831968	0.25809	0.907292
0	O	0.755387	0.830255	0.905653
0	O	0.181804	0.93268	0.90761
0	O	0.931595	0.756588	0.1768
0	O	0.259196	0.184137	0.178771
0	O	0.832654	0.0818327	0.177353
0	O	0.748725	0.591796	0.236514
0	O	0.422116	0.162509	0.237452
0	O	0.853152	0.265639	0.238122
0	O	0.599862	0.0861248	0.505831
0	O	0.926842	0.518519	0.505729
0	O	0.495322	0.415112	0.504661
0	O	0.414845	0.928492	0.578456
0	O	0.0877993	0.496024	0.578924
0	O	0.519248	0.599431	0.57987
0	O	0.265992	0.422819	0.847669
0	O	0.592502	0.852025	0.847092
0	O	0.16143	0.748892	0.846566
0	C	0.089192	0.299674	0.993035
0	C	0.713812	0.794471	0.991297
0	C	0.217404	0.926575	0.992913
0	C	0.925491	0.7149	0.0912605
0	C	0.300721	0.219937	0.0930445
0	C	0.797047	0.0878617	0.0919399
0	C	0.754473	0.632906	0.3234
0	C	0.380767	0.127605	0.324513
0	C	0.888189	0.259431	0.324934
0	C	0.593378	0.0448606	0.41864
0	C	0.96812	0.553944	0.419216
0	C	0.460458	0.421838	0.418412
0	C	0.421257	0.969676	0.665815
0	C	0.0464712	0.460585	0.665328
0	C	0.554088	0.592641	0.666075
0	C	0.260193	0.381647	0.760915
0	C	0.633815	0.886918	0.759946
0	C	0.12637	0.755054	0.759746
0	C	0.112268	0.224448	0.935283
0	C	0.789308	0.893053	0.934642
0	C	0.119096	0.903784	0.936448
0	C	0.902398	0.790126	0.148966
0	C	0.225253	0.121352	0.149695
0	C	0.895362	0.110716	0.14846
0	C	0.777282	0.557652	0.2645
0	C	0.456633	0.225493	0.263884
0	C	0.790279	0.236815	0.264982
0	C	0.57087	0.120082	0.480698
0	C	0.893704	0.455392	0.480299
0	C	0.558433	0.444813	0.479986
0	C	0.443682	0.894403	0.603751
0	C	0.120906	0.559154	0.604358
0	C	0.456131	0.569705	0.604416
0	C	0.237274	0.456828	0.819858
0	C	0.557959	0.789045	0.820658
0	C	0.224299	0.77771	0.81962
0	C	0.125857	0.317713	0.101931
0	C	0.696075	0.81302	0.100756
0	C	0.198742	0.890059	0.102147
0	C	0.888775	0.696799	0.982464
0	C	0.318428	0.201418	0.983494
0	C	0.815709	0.124376	0.982687
0	C	0.790303	0.64983	0.433663
0	C	0.364048	0.147193	0.433848
0	C	0.868822	0.223024	0.434281
0	C	0.556974	0.0280399	0.309377
0	C	0.985467	0.534979	0.309845
0	C	0.479983	0.458243	0.309042
0	C	0.457649	0.986455	0.775105
0	C	0.0291076	0.479543	0.774687
0	C	0.534545	0.556219	0.775407
0	C	0.224351	0.364684	0.650689
0	C	0.650527	0.867326	0.650613
0	C	0.145719	0.791446	0.650361
0	C	0.162951	0.291113	0.132737
0	C	0.722653	0.876851	0.131726
0	C	0.134967	0.852914	0.133323
0	C	0.851669	0.723382	0.951643
0	C	0.291845	0.137596	0.95245
0	C	0.879487	0.16157	0.951567
0	C	0.827506	0.623259	0.463543
0	C	0.391466	0.211274	0.462949
0	C	0.804862	0.185816	0.463439
0	C	0.520364	0.0553558	0.280617
0	C	0.958778	0.471021	0.280278
0	C	0.543978	0.49497	0.279856
0	C	0.494231	0.959108	0.803844
0	C	0.055784	0.5435	0.804278
0	C	0.470545	0.519522	0.804556
0	C	0.187109	0.39121	0.620807
0	C	0.623103	0.803245	0.621535
0	C	0.209673	0.828673	0.621155
0	C	0.168694	0.261944	0.00825858
0	C	0.751767	0.911894	0.00721581
0	C	0.0999607	0.847221	0.0090614
0	C	0.845955	0.752576	0.0761093
0	C	0.262755	0.102516	0.0769312
0	C	0.914482	0.167281	0.0758651
0	C	0.83358	0.594782	0.338257
0	C	0.420197	0.245469	0.337316
0	C	0.770595	0.180226	0.337995
0	C	0.514515	0.0834163	0.406788
0	C	0.930917	0.436587	0.406127
0	C	0.577928	0.501182	0.40618
0	C	0.500041	0.930996	0.677715
0	C	0.0836463	0.577932	0.678425
0	C	0.436618	0.513329	0.67821
0	C	0.180986	0.419625	0.746143
0	C	0.594362	0.769046	0.747155
0	C	0.243964	0.834289	0.746578
0	H	0.199485	0.296512	0.941685
0	H	0.717235	0.907891	0.940512
0	H	0.103586	0.81649	0.942189
0	H	0.815202	0.718006	0.142731
0	H	0.297299	0.106479	0.143551
0	H	0.910802	0.197984	0.14273
0	H	0.864486	0.629699	0.272549
0	H	0.385527	0.241804	0.271561
0	H	0.774419	0.149387	0.271891
0	H	0.483474	0.048287	0.471908
0	H	0.966123	0.44111	0.471233
0	H	0.573577	0.532006	0.471236
0	H	0.531131	0.966081	0.612573
0	H	0.0484422	0.573374	0.613276
0	H	0.440954	0.482497	0.613155
0	H	0.15013	0.384659	0.81182
0	H	0.629027	0.772679	0.812894
0	H	0.240125	0.865124	0.812674
0	H	0.189374	0.236115	0.030888
0	H	0.777453	0.958562	0.029706
0	H	0.0534021	0.826415	0.0318197
0	H	0.825224	0.778358	0.0534938
0	H	0.237048	0.0558569	0.0543711
0	H	0.961046	0.188123	0.0531516
0	H	0.854257	0.568877	0.360047
0	H	0.446616	0.292181	0.358655
0	H	0.723939	0.15957	0.359414
0	H	0.494048	0.109593	0.385914
0	H	0.905262	0.389808	0.384824
0	H	0.624681	0.522126	0.38556
0	H	0.520413	0.904737	0.698658
0	H	0.109268	0.624715	0.699707
0	H	0.389863	0.4924	0.698793
0	H	0.160212	0.445446	0.724426
0	H	0.567916	0.722339	0.725797
0	H	0.290617	0.854957	0.725121
0	C	0.223986	0.339116	0.171607
0	C	0.674815	0.889859	0.17092
0	C	0.121566	0.791764	0.172072
0	C	0.790628	0.675371	0.912867
0	C	0.339677	0.124598	0.91311
0	C	0.892833	0.222699	0.91281
0	C	0.888391	0.671247	0.503605
0	C	0.344236	0.225139	0.502592
0	C	0.791405	0.124668	0.502473
0	C	0.459302	0.00810644	0.239525
0	C	0.00639103	0.458013	0.238761
0	C	0.557856	0.555957	0.238115
0	C	0.555311	0.00634242	0.844886
0	C	0.00815317	0.556489	0.845745
0	C	0.456622	0.458518	0.846293
0	C	0.126246	0.3432	0.5807
0	C	0.67032	0.789364	0.581872
0	C	0.223092	0.889803	0.582085
0	H	0.223962	0.358786	0.264703
0	H	0.654864	0.869696	0.263534
0	H	0.141538	0.791784	0.264738
0	H	0.7906	0.65579	0.81961
0	H	0.359481	0.144633	0.820295
0	H	0.872967	0.222675	0.819991
0	H	0.888127	0.689946	0.597906
0	H	0.32556	0.206641	0.597235
0	H	0.809977	0.124531	0.596995
0	H	0.459523	0.989886	0.144545
0	H	0.0243559	0.476644	0.14373
0	H	0.539564	0.555528	0.142841
0	H	0.555083	0.0247084	0.939671
0	H	0.990057	0.537709	0.940591
0	H	0.475027	0.458948	0.941425
0	H	0.126505	0.324638	0.486213
0	H	0.688886	0.807728	0.487065
0	H	0.204651	0.889937	0.487389
0	H	0.241691	0.373693	0.0985236
0	H	0.64046	0.873413	0.0974517
0	H	0.137878	0.773803	0.098533
0	H	0.772998	0.640727	0.985797
0	H	0.374136	0.141183	0.986339
0	H	0.876369	0.240585	0.98618
0	H	0.90593	0.706504	0.432238
0	H	0.308903	0.207484	0.4315
0	H	0.809223	0.107333	0.431039
0	H	0.441261	0.972451	0.309798
0	H	0.0421166	0.476098	0.308694
0	H	0.540022	0.573934	0.307728
0	H	0.57342	0.0418974	0.774358
0	H	0.972516	0.538538	0.775592
0	H	0.474306	0.440463	0.776495
0	H	0.108779	0.307849	0.651831
0	H	0.705729	0.807136	0.652785
0	H	0.205108	0.907064	0.653284
0	H	0.253924	0.32269	0.17977
0	H	0.691432	0.936328	0.180224
0	H	0.0750928	0.761937	0.18116
0	H	0.760642	0.691755	0.905065
0	H	0.323087	0.0781226	0.904121
0	H	0.939305	0.252596	0.904017
0	H	0.918591	0.655079	0.510001
0	H	0.361014	0.271746	0.508057
0	H	0.744911	0.0944519	0.507892
0	H	0.429531	0.0248126	0.233996
0	H	0.990182	0.411527	0.233118
0	H	0.604417	0.585955	0.232918
0	H	0.585016	0.989566	0.850794
0	H	0.0243824	0.602971	0.851737
0	H	0.410057	0.428585	0.851787
0	H	0.0959777	0.359296	0.574668
0	H	0.653559	0.742753	0.576729
0	H	0.269583	0.920082	0.577006
0	C	0.127184	0.361312	0.179671
0	C	0.652728	0.770545	0.17883
0	C	0.241068	0.888858	0.17972
0	C	0.887358	0.653115	0.904882
0	C	0.361773	0.243912	0.905444
0	C	0.773392	0.12555	0.905057
0	C	0.790925	0.692556	0.513344
0	C	0.320973	0.105517	0.513824
0	C	0.910628	0.221958	0.51401
0	C	0.555282	0.984807	0.229655
0	C	0.028608	0.577185	0.230917
0	C	0.43835	0.460041	0.23013
0	C	0.459284	0.0296297	0.854957
0	C	0.985959	0.437327	0.85358
0	C	0.576171	0.554404	0.854332
0	C	0.223687	0.32191	0.571106
0	C	0.693606	0.908994	0.570626
0	C	0.103904	0.792503	0.570663
0	H	0.155354	0.376533	0.264682
0	H	0.637773	0.783437	0.264304
0	H	0.228108	0.860908	0.265156
0	H	0.859165	0.637871	0.819919
0	H	0.3767	0.231047	0.81988
0	H	0.786356	0.153495	0.81961
0	H	0.818319	0.706814	0.599666
0	H	0.306924	0.11924	0.599444
0	H	0.897087	0.194128	0.599663
0	H	0.527382	0.970601	0.144145
0	H	0.0432527	0.564055	0.145313
0	H	0.451953	0.487831	0.144385
0	H	0.487189	0.0438284	0.940466
0	H	0.971284	0.450452	0.939146
0	H	0.562553	0.526596	0.940047
0	H	0.196295	0.307643	0.484793
0	H	0.707626	0.895266	0.484969
0	H	0.117431	0.820318	0.484985
0	C	0.0933114	0.385852	0.150586
0	C	0.628142	0.712012	0.149531
0	C	0.299535	0.922573	0.149936
0	C	0.921164	0.628515	0.934076
0	C	0.38639	0.302436	0.934888
0	C	0.714918	0.0917956	0.934738
0	C	0.757316	0.717426	0.484652
0	C	0.295547	0.0467368	0.486338
0	C	0.969289	0.255697	0.486205
0	C	0.588387	0.959301	0.257433
0	C	0.0535146	0.635814	0.259564
0	C	0.379718	0.427234	0.259027
0	C	0.426109	0.0550713	0.827331
0	C	0.961074	0.3787	0.824946
0	C	0.634807	0.587203	0.825434
0	C	0.257244	0.296995	0.59992
0	C	0.719062	0.967774	0.598154
0	C	0.0452497	0.758757	0.598477
0	H	0.0949306	0.419435	0.212834
0	H	0.594906	0.679864	0.212262
0	H	0.331541	0.921105	0.212141
0	H	0.919454	0.594848	0.871981
0	H	0.419636	0.334595	0.872188
0	H	0.682918	0.0932555	0.87251
0	H	0.758194	0.750146	0.54868
0	H	0.262535	0.015232	0.550502
0	H	0.00087984	0.254413	0.550202
0	H	0.586415	0.92597	0.193771
0	H	0.0867684	0.6677	0.196422
0	H	0.348292	0.429339	0.195971
0	H	0.428014	0.0883334	0.891127
0	H	0.927826	0.346801	0.888074
0	H	0.666231	0.585103	0.888517
0	H	0.256308	0.264215	0.536004
0	H	0.752092	0.999271	0.534006
0	H	0.0136531	0.760045	0.534515
0	C	0.0574131	0.367335	0.0413902
0	C	0.646177	0.694725	0.0394609
0	C	0.316929	0.958139	0.0401073
0	C	0.957121	0.647092	0.0431936
0	C	0.368347	0.3197	0.0449903
0	C	0.697512	0.0561728	0.0444727
0	C	0.722655	0.700393	0.373445
0	C	0.312468	0.0284184	0.376129
0	C	0.987392	0.290978	0.375897
0	C	0.623929	0.976496	0.367242
0	C	0.0358031	0.65352	0.369505
0	C	0.361454	0.391834	0.369129
0	C	0.390584	0.0379139	0.717507
0	C	0.978769	0.361009	0.714969
0	C	0.653078	0.622566	0.715271
0	C	0.291923	0.314064	0.711106
0	C	0.702116	0.986105	0.708312
0	C	0.0271541	0.723441	0.708728
0	H	0.031106	0.386675	0.0182456
0	H	0.626722	0.648967	0.0160587
0	H	0.36262	0.984248	0.0163041
0	H	0.983374	0.627703	0.0664373
0	H	0.387799	0.36545	0.0684597
0	H	0.651814	0.0299978	0.0681304
0	H	0.696711	0.72015	0.350333
0	H	0.292353	0.982487	0.353859
0	H	0.0332377	0.317061	0.353421
0	H	0.649664	0.956407	0.389381
0	H	0.0554421	0.699341	0.392409
0	H	0.315643	0.366451	0.392332
0	H	0.364787	0.057948	0.695492
0	H	0.95912	0.315189	0.692035
0	H	0.698888	0.647908	0.692024
0	H	0.31782	0.294267	0.734327
0	H	0.722229	0.0320378	0.730566
0	H	0.981309	0.697321	0.73117
0	C	0.0550898	0.324381	0.961671
0	C	0.688799	0.735552	0.959277
0	C	0.276256	0.960401	0.96065
0	C	0.959542	0.690145	0.122719
0	C	0.325721	0.278851	0.125118
0	C	0.738184	0.0539534	0.124024
0	C	0.72104	0.658326	0.291794
0	C	0.354859	0.068435	0.294198
0	C	0.947239	0.293037	0.294246
0	C	0.626653	0.0191006	0.448821
0	C	0.993257	0.612981	0.450273
0	C	0.401417	0.388842	0.449676
0	C	0.387923	0.995383	0.63577
0	C	0.0213124	0.401556	0.634186
0	C	0.61313	0.625585	0.634742
0	C	0.293587	0.356195	0.79263
0	C	0.659702	0.946093	0.790195
0	C	0.067324	0.721408	0.79039
0	H	0.0278266	0.309668	0.875884
0	H	0.703001	0.723054	0.872652
0	H	0.288804	0.987356	0.874335
0	H	0.986872	0.704924	0.208411
0	H	0.311495	0.291325	0.211743
0	H	0.725616	0.0269448	0.210256
0	H	0.69488	0.644865	0.20427
0	H	0.368219	0.0551577	0.207475
0	H	0.960326	0.319693	0.207435
0	H	0.653591	0.0326767	0.535183
0	H	0.979199	0.625769	0.536675
0	H	0.388178	0.361926	0.536088
0	H	0.361006	0.981843	0.549384
0	H	0.0353361	0.388778	0.547717
0	H	0.626362	0.652459	0.548267
0	H	0.319772	0.369691	0.880123
0	H	0.646298	0.959379	0.876842
0	H	0.0542344	0.694716	0.877146
0	C	0.137561	0.247628	0.244099
0	C	0.766179	0.895122	0.242891
0	C	0.117075	0.878253	0.244958
0	C	0.87703	0.766827	0.840202
0	C	0.248317	0.119334	0.8413
0	C	0.897428	0.136262	0.839962
0	C	0.802228	0.579256	0.573938
0	C	0.435415	0.229624	0.573234
0	C	0.786274	0.211013	0.574048
0	C	0.546255	0.0998407	0.171332
0	C	0.914391	0.452098	0.170854
0	C	0.562582	0.469044	0.170917
0	C	0.468323	0.914627	0.91314
0	C	0.100171	0.562427	0.913719
0	C	0.451944	0.545466	0.91346
0	C	0.212363	0.435219	0.510428
0	C	0.579159	0.784898	0.51125
0	C	0.228258	0.803487	0.510517
0	C	0.163842	0.215527	0.27937
0	C	0.798877	0.953842	0.276439
0	C	0.058591	0.851905	0.28001
0	C	0.850773	0.798947	0.804944
0	C	0.215603	0.060607	0.80782
0	C	0.955917	0.162697	0.80489
0	C	0.828815	0.5473	0.607995
0	C	0.467298	0.288132	0.608829
0	C	0.727733	0.184158	0.608764
0	C	0.519407	0.131416	0.136168
0	C	0.883139	0.39353	0.135404
0	C	0.621155	0.495772	0.136481
0	C	0.495197	0.883092	0.94846
0	C	0.131457	0.620997	0.949126
0	C	0.39337	0.518796	0.947805
0	C	0.185816	0.467237	0.476583
0	C	0.547315	0.726392	0.475614
0	C	0.286793	0.830414	0.475667
0	H	0.202435	0.221771	0.228035
0	H	0.792909	0.986152	0.224052
0	H	0.0261242	0.813379	0.228249
0	H	0.812194	0.792736	0.856288
0	H	0.22152	0.0282908	0.860332
0	H	0.988342	0.201293	0.856521
0	H	0.867379	0.553889	0.555961
0	H	0.46066	0.320393	0.558179
0	H	0.695635	0.145282	0.557451
0	H	0.480428	0.124378	0.186944
0	H	0.89034	0.361657	0.186083
0	H	0.653246	0.534718	0.187569
0	H	0.534207	0.890161	0.897775
0	H	0.124275	0.652874	0.898415
0	H	0.361268	0.479884	0.896645
0	H	0.147299	0.460694	0.528754
0	H	0.553975	0.694136	0.526229
0	H	0.318879	0.86933	0.526883
0	C	0.141231	0.174613	0.378295
0	C	0.840002	0.9725	0.374792
0	C	0.0403548	0.874342	0.379194
0	C	0.873382	0.839836	0.705954
0	C	0.174524	0.041942	0.709387
0	C	0.974214	0.140254	0.705846
0	C	0.80666	0.506246	0.706705
0	C	0.50832	0.306618	0.707467
0	C	0.708985	0.206478	0.707225
0	C	0.541769	0.172551	0.0376573
0	C	0.842104	0.374512	0.0367919
0	C	0.639915	0.473287	0.0384636
0	C	0.472812	0.841948	0.0469454
0	C	0.172499	0.640004	0.0477472
0	C	0.374614	0.541285	0.0458268
0	C	0.207946	0.50828	0.377846
0	C	0.506295	0.707893	0.376985
0	C	0.305544	0.808104	0.377191
0	H	0.161143	0.148618	0.40243
0	H	0.866442	0.0186426	0.39752
0	H	0.994372	0.854334	0.403064
0	H	0.853457	0.865812	0.68176
0	H	0.148068	0.995788	0.686774
0	H	0.0201932	0.160345	0.681874
0	H	0.826868	0.480453	0.730015
0	H	0.534054	0.352621	0.732012
0	H	0.662975	0.186056	0.731033
0	H	0.521285	0.197981	0.0133323
0	H	0.81686	0.328461	0.0124062
0	H	0.68594	0.493645	0.0147547
0	H	0.493286	0.816515	0.0713314
0	H	0.197778	0.686057	0.0721095
0	H	0.328585	0.520984	0.0694341
0	H	0.187742	0.534088	0.354644
0	H	0.4806	0.661889	0.352415
0	H	0.351546	0.828592	0.353248
0	C	0.0921577	0.166728	0.443975
0	C	0.847474	0.931301	0.441726
0	C	0.0817211	0.923336	0.44541
0	C	0.922462	0.847721	0.640306
0	C	0.167093	0.0831252	0.642249
0	C	0.932909	0.0911304	0.639905
0	C	0.757728	0.498123	0.773435
0	C	0.516492	0.265434	0.77242
0	C	0.749927	0.255871	0.772916
0	C	0.591233	0.181237	0.972456
0	C	0.833207	0.415185	0.971662
0	C	0.598996	0.42383	0.972959
0	C	0.423324	0.833255	0.112043
0	C	0.181329	0.599299	0.11293
0	C	0.415568	0.590676	0.11151
0	C	0.256829	0.516375	0.310953
0	C	0.49805	0.749045	0.312107
0	C	0.264633	0.758633	0.311703
0	C	0.0652155	0.198322	0.412766
0	C	0.815235	0.872441	0.412436
0	C	0.140362	0.950314	0.414496
0	C	0.949352	0.816073	0.671468
0	C	0.199309	0.141983	0.671558
0	C	0.874267	0.0640987	0.670746
0	C	0.730423	0.529476	0.743321
0	C	0.48524	0.206788	0.740598
0	C	0.808622	0.283378	0.74229
0	C	0.618984	0.150476	0.0042436
0	C	0.863756	0.47386	0.00345771
0	C	0.540323	0.396269	0.00376562
0	C	0.395533	0.863959	0.0800942
0	C	0.150738	0.540622	0.0811964
0	C	0.474244	0.618194	0.0807565
0	C	0.284078	0.484941	0.340844
0	C	0.529255	0.807688	0.343985
0	C	0.20595	0.731068	0.342434
0	H	0.0271885	0.191697	0.465413
0	H	0.821552	0.841051	0.466055
0	H	0.171918	0.988215	0.467649
0	H	0.987364	0.822671	0.618794
0	H	0.193005	0.173367	0.617879
0	H	0.842763	0.0261326	0.617713
0	H	0.692484	0.522573	0.796802
0	H	0.492209	0.17546	0.792654
0	H	0.839789	0.321631	0.795087
0	H	0.657401	0.157888	0.952151
0	H	0.856267	0.504802	0.951207
0	H	0.509196	0.357896	0.951275
0	H	0.357081	0.856522	0.132068
0	H	0.158171	0.509655	0.133501
0	H	0.505392	0.656525	0.133353
0	H	0.321961	0.4918	0.287194
0	H	0.522226	0.838989	0.292002
0	H	0.174801	0.692765	0.289768
0	C	0.088277	0.238365	0.311927
0	C	0.774966	0.8551	0.312108
0	C	0.157269	0.927438	0.313304
0	C	0.926262	0.776011	0.772252
0	C	0.239543	0.159339	0.771984
0	C	0.857286	0.087016	0.771727
0	C	0.753008	0.569619	0.642579
0	C	0.445098	0.189647	0.640116
0	C	0.826036	0.260595	0.641938
0	C	0.596152	0.110181	0.104643
0	C	0.903899	0.491549	0.104094
0	C	0.522875	0.419218	0.103762
0	C	0.418364	0.904225	0.979628
0	C	0.110611	0.522951	0.980531
0	C	0.491674	0.595264	0.980692
0	C	0.261495	0.444773	0.441523
0	C	0.569423	0.82485	0.44443
0	C	0.188518	0.753864	0.44274
0	H	0.0664076	0.262114	0.28585
0	H	0.750727	0.809204	0.287651
0	H	0.202967	0.949393	0.287416
0	H	0.94807	0.752192	0.798236
0	H	0.263765	0.205237	0.796444
0	H	0.81158	0.0650394	0.797526
0	H	0.73084	0.59317	0.617421
0	H	0.421542	0.143948	0.613704
0	H	0.871779	0.282893	0.616353
0	H	0.618536	0.086971	0.13097
0	H	0.926871	0.53726	0.130539
0	H	0.477148	0.396951	0.129515
0	H	0.395929	0.927364	0.953134
0	H	0.0876091	0.477237	0.954127
0	H	0.537401	0.617512	0.954937
0	H	0.283601	0.421137	0.466465
0	H	0.592951	0.870548	0.470873
0	H	0.142781	0.731534	0.468373
0	C	0.123497	0.210005	0.799263
0	C	0.80433	0.919164	0.799035
0	C	0.0930027	0.892631	0.800843
0	C	0.891168	0.80452	0.285038
0	C	0.210261	0.0951896	0.285254
0	C	0.921473	0.121859	0.28405
0	C	0.788656	0.543512	0.128349
0	C	0.470506	0.250374	0.12703
0	C	0.765193	0.225756	0.128389
0	C	0.559473	0.133058	0.617982
0	C	0.881	0.430864	0.617514
0	C	0.582617	0.456323	0.617481
0	C	0.455041	0.881341	0.466516
0	C	0.133636	0.583672	0.467133
0	C	0.431993	0.558197	0.466881
0	C	0.225851	0.470866	0.95607
0	C	0.544095	0.764148	0.957495
0	C	0.249409	0.788783	0.956193
0	H	0.0838925	0.189512	0.739767
0	H	0.82393	0.899342	0.739072
0	H	0.112625	0.932206	0.741007
0	H	0.930827	0.825296	0.344338
0	H	0.190326	0.11472	0.345076
0	H	0.902017	0.0822273	0.343683
0	H	0.749144	0.523246	0.068526
0	H	0.490453	0.2307	0.0677825
0	H	0.78467	0.26548	0.069156
0	H	0.599088	0.153308	0.677446
0	H	0.859791	0.449274	0.676655
0	H	0.563642	0.416546	0.676475
0	H	0.415472	0.861379	0.406903
0	H	0.154562	0.565013	0.407836
0	H	0.451167	0.59793	0.407718
0	H	0.265408	0.491425	0.0157375
0	H	0.523844	0.783568	0.0165633
0	H	0.230152	0.749006	0.0152334
0	H	0.140204	0.180178	0.802471
0	H	0.835069	0.965618	0.802788
0	H	0.046568	0.876558	0.804749
0	H	0.874126	0.834068	0.281877
0	H	0.179812	0.0486701	0.281406
0	H	0.96795	0.138163	0.280076
0	H	0.805233	0.513585	0.131076
0	H	0.500577	0.297	0.128623
0	H	0.718617	0.20895	0.130389
0	H	0.542378	0.162576	0.617397
0	H	0.852485	0.383945	0.616745
0	H	0.629399	0.474316	0.617224
0	H	0.471781	0.851526	0.467165
0	H	0.162412	0.630549	0.46786
0	H	0.385247	0.540447	0.46703
0	H	0.208903	0.500485	0.953433
0	H	0.514286	0.717468	0.955842
0	H	0.296034	0.805876	0.954129
0	H	0.15479	0.248857	0.746244
0	H	0.765942	0.912706	0.746112
0	H	0.0996243	0.860837	0.747684
0	H	0.86012	0.765597	0.338216
0	H	0.248718	0.101956	0.338381
0	H	0.914636	0.15347	0.337411
0	H	0.820027	0.582502	0.0759116
0	H	0.431506	0.242614	0.0748201
0	H	0.772958	0.194588	0.0758244
0	H	0.528385	0.0935578	0.669367
0	H	0.920663	0.440447	0.669392
0	H	0.573473	0.486755	0.669168
0	H	0.486378	0.920752	0.415233
0	H	0.0940202	0.574364	0.415432
0	H	0.440915	0.527566	0.41541
0	H	0.194734	0.431778	0.00860495
0	H	0.583144	0.77219	0.00991751
0	H	0.241372	0.819724	0.00896569
0	C	0.0683831	0.171002	0.00910452
0	C	0.842307	0.902213	0.00927186
0	C	0.11017	0.94786	0.0107948
0	C	0.94619	0.843603	0.0750853
0	C	0.172233	0.112211	0.0752042
0	C	0.904264	0.0666411	0.0740536
0	C	0.733058	0.50411	0.337516
0	C	0.510171	0.23493	0.336576
0	C	0.780841	0.280799	0.338275
0	C	0.614897	0.174247	0.409202
0	C	0.839328	0.444299	0.408865
0	C	0.569074	0.401235	0.408439
0	C	0.399548	0.840293	0.675239
0	C	0.175262	0.57025	0.675902
0	C	0.445431	0.613262	0.675885
0	C	0.281388	0.510435	0.746854
0	C	0.504408	0.779611	0.748047
0	C	0.233707	0.733716	0.746297
0	H	0.0310916	0.142971	0.948291
0	H	0.870698	0.893619	0.948357
0	H	0.120191	0.985516	0.950527
0	H	0.983588	0.871585	0.135691
0	H	0.144008	0.121087	0.136009
0	H	0.894341	0.0290142	0.134328
0	H	0.696388	0.475785	0.27544
0	H	0.538426	0.226746	0.274195
0	H	0.789324	0.317592	0.27653
0	H	0.651229	0.202573	0.472091
0	H	0.810616	0.45152	0.471943
0	H	0.562114	0.36538	0.471722
0	H	0.363266	0.811967	0.612239
0	H	0.204111	0.563289	0.6127
0	H	0.452403	0.649107	0.612553
0	H	0.318109	0.538756	0.808822
0	H	0.476283	0.788037	0.810294
0	H	0.225226	0.696911	0.808003
0	H	0.0519687	0.182635	0.0945107
0	H	0.830257	0.873353	0.0934307
0	H	0.138053	0.963807	0.0966192
0	H	0.962451	0.832008	0.989351
0	H	0.184245	0.140852	0.990657
0	H	0.876297	0.0506327	0.988379
0	H	0.715766	0.515606	0.421535
0	H	0.49874	0.205968	0.420402
0	H	0.809521	0.298031	0.422589
0	H	0.632764	0.163519	0.325034
0	H	0.849646	0.473045	0.324981
0	H	0.53996	0.382542	0.32523
0	H	0.381616	0.851093	0.759174
0	H	0.164913	0.541296	0.759404
0	H	0.474505	0.631962	0.759162
0	H	0.298616	0.499018	0.662588
0	H	0.515809	0.808374	0.663863
0	H	0.205014	0.71649	0.662012
0	H	0.0873468	0.145453	0.0432635
0	H	0.867576	0.946543	0.0455062
0	H	0.065562	0.929197	0.0443305
0	H	0.927187	0.869186	0.0414178
0	H	0.146787	0.0677978	0.0395741
0	H	0.948839	0.0853302	0.0402581
0	H	0.752052	0.478889	0.373652
0	H	0.535362	0.279237	0.372959
0	H	0.736503	0.261538	0.374034
0	H	0.595584	0.199245	0.373559
0	H	0.814969	0.399864	0.372808
0	H	0.613261	0.421289	0.371249
0	H	0.418772	0.815264	0.711215
0	H	0.199471	0.614597	0.712544
0	H	0.401224	0.593192	0.712946
0	H	0.262301	0.535625	0.711075
0	H	0.479079	0.735227	0.712207
0	H	0.278038	0.752971	0.710477
