#******************************************
#
# CIF file created by Zeo++
# Zeo++ is an open source package to
# analyze microporous materials
#
#*******************************************

_cell_length_a		10.881(0)
_cell_length_b		11.0272(0)
_cell_length_c		11.8207(0)
_cell_angle_alpha		90(0)
_cell_angle_beta		113.45(0)
_cell_angle_gamma		90(0)

_symmetry_space_group_name_H-M		'P1'
_symmetry_Int_Tables_number		1
_symmetry_cell_setting		Monoclinic

loop_
_symmetry_equiv_pos_as_xyz
'+x,+y,+z'

loop_
_atom_site_label
_atom_site_type_symbol
_atom_site_fract_x
_atom_site_fract_y
_atom_site_fract_z
0	C	0.465061	0.0203636	0.444211
0	C	0.671887	0.520224	0.643716
0	C	0.550979	0.997045	0.385172
0	C	0.585988	0.497263	0.702824
0	C	0.659007	0.919255	0.443838
0	C	0.47753	0.420028	0.643899
0	C	0.68461	0.86672	0.558397
0	C	0.451367	0.367775	0.529096
0	C	0.598144	0.892776	0.617188
0	C	0.53777	0.393565	0.470197
0	C	0.630769	0.842318	0.744094
0	C	0.504893	0.343511	0.343123
0	C	0.529335	0.863557	0.794485
0	C	0.606727	0.363951	0.293021
0	C	0.391346	0.892716	0.710789
0	C	0.744801	0.392905	0.376764
0	C	0.39106	0.997143	0.620244
0	C	0.74513	0.497292	0.467302
0	C	0.48554	0.968223	0.55854
0	C	0.650763	0.468509	0.52909
0	C	0.246974	0.0214325	0.526099
0	C	0.889127	0.521688	0.561544
0	C	0.153665	0.058947	0.58879
0	C	0.982326	0.55955	0.498878
0	C	0.15115	0.959188	0.67808
0	C	0.984945	0.459763	0.409631
0	C	0.299612	0.928997	0.774575
0	C	0.836613	0.429299	0.313062
0	C	0.271572	0.834883	0.860461
0	C	0.864952	0.335344	0.227165
0	C	0.142738	0.885098	0.871044
0	C	0.993705	0.385895	0.216679
0	C	0.110989	0.00362424	0.786349
0	C	0.0252156	0.504266	0.3015
0	C	0.0703398	0.851771	0.605715
0	C	0.0657038	0.352405	0.48226
0	O	0.740988	0.884259	0.382775
0	O	0.39537	0.385158	0.704768
0	C	0.81797	0.969705	0.353315
0	C	0.318665	0.47061	0.73449
0	O	0.828368	0.0730476	0.389626
0	O	0.308603	0.574156	0.698816
0	C	0.878569	0.90918	0.276088
0	C	0.257238	0.409482	0.810767
0	C	0.335748	0.0469535	0.850261
0	C	0.800302	0.547113	0.237236
0	C	0.0311375	0.798451	0.83715
0	C	0.105351	0.299402	0.250629
0	N	0.943254	0.730964	0.813185
0	N	0.193491	0.232137	0.275036
0	O	0.164235	0.931975	0.991611
0	O	0.972301	0.432949	0.0961701
0	C	0.198908	0.858903	0.0955326
0	C	0.937526	0.359721	0.992351
0	O	0.230136	0.754046	0.0949742
0	O	0.90698	0.254727	0.99341
0	C	0.187594	0.935072	0.194158
0	C	0.947616	0.43563	0.893067
0	C	0.223832	0.0915195	0.856977
0	C	0.912167	0.591867	0.230534
0	O	0.975061	0.0377047	0.753255
0	O	0.161205	0.538349	0.334796
0	C	0.930876	0.154874	0.718417
0	C	0.205338	0.655527	0.369563
0	O	0.00550038	0.23567	0.716139
0	O	0.130658	0.736103	0.372259
0	C	0.785245	0.160811	0.688228
0	C	0.350704	0.661953	0.398625
0	H	0.37976	0.0815952	0.399908
0	H	0.757839	0.580762	0.688166
0	H	0.53533	0.0380626	0.29691
0	H	0.601918	0.538029	0.791292
0	H	0.770653	0.807096	0.600983
0	H	0.364971	0.308584	0.486506
0	H	0.730408	0.87832	0.808164
0	H	0.405723	0.380547	0.279113
0	H	0.649242	0.741896	0.743235
0	H	0.485098	0.243309	0.343362
0	H	0.557016	0.857007	0.892212
0	H	0.579513	0.355927	0.195461
0	H	0.346897	0.809246	0.652778
0	H	0.789215	0.309434	0.434742
0	H	0.429533	0.081572	0.676344
0	H	0.706512	0.581595	0.411038
0	H	0.207214	0.938962	0.469132
0	H	0.929041	0.439188	0.618469
0	H	0.247606	0.0939243	0.461358
0	H	0.88837	0.594121	0.626403
0	H	0.050994	0.0760966	0.519014
0	H	0.0849187	0.576842	0.568601
0	H	0.186458	0.146811	0.637093
0	H	0.949199	0.64731	0.450381
0	H	0.355107	0.828369	0.951628
0	H	0.781557	0.328814	0.135914
0	H	0.257876	0.742742	0.820223
0	H	0.87881	0.243161	0.267286
0	H	0.0985247	0.765036	0.654632
0	H	0.0377219	0.265648	0.433402
0	H	0.962554	0.865728	0.579925
0	H	0.173529	0.366404	0.508305
0	H	0.0857275	0.837488	0.519653
0	H	0.0500569	0.338233	0.568183
0	H	0.908905	0.975172	0.222366
0	H	0.226183	0.475089	0.864414
0	H	0.969625	0.856827	0.33375
0	H	0.166466	0.357118	0.752319
0	H	0.810568	0.842393	0.212148
0	H	0.324934	0.342537	0.874689
0	H	0.436337	0.08114	0.888598
0	H	0.699564	0.581049	0.198707
0	H	0.183381	0.879532	0.270352
0	H	0.950847	0.379893	0.816548
0	H	0.272982	0.998426	0.23357
0	H	0.862223	0.49904	0.854353
0	H	0.0980741	0.994051	0.159138
0	H	0.0371829	0.494504	0.927123
0	H	0.207092	0.170126	0.902224
0	H	0.928653	0.670187	0.18477
0	H	0.747684	0.25489	0.671517
0	H	0.388654	0.755751	0.418562
0	H	0.727131	0.108237	0.604019
0	H	0.409668	0.606607	0.480399
0	H	0.759741	0.122964	0.762722
0	H	0.374653	0.627744	0.321853
