#******************************************
#
# CIF file created by Zeo++
# Zeo++ is an open source package to
# analyze microporous materials
#
#*******************************************

_cell_length_a		13.8283(0)
_cell_length_b		14.2904(0)
_cell_length_c		10.0909(0)
_cell_angle_alpha		90(0)
_cell_angle_beta		90(0)
_cell_angle_gamma		122.585(0)

_symmetry_space_group_name_H-M		'P1'
_symmetry_Int_Tables_number		1
_symmetry_cell_setting		Monoclinic

loop_
_symmetry_equiv_pos_as_xyz
'+x,+y,+z'

loop_
_atom_site_label
_atom_site_type_symbol
_atom_site_fract_x
_atom_site_fract_y
_atom_site_fract_z
0	C	0.55502	0.27179	0.395563
0	C	0.8067	0.269021	0.729411
0	C	0.806984	0.522715	0.0610491
0	C	0.57598	0.789722	0.888578
0	C	0.322401	0.793864	0.233675
0	C	0.318695	0.54103	0.547756
0	H	0.560252	0.229206	0.487755
0	H	0.849101	0.320026	0.822585
0	H	0.75162	0.508535	0.15287
0	H	0.573531	0.832913	0.981619
0	H	0.28238	0.738964	0.32426
0	H	0.371944	0.555908	0.641777
0	N	0.611893	0.394312	0.425619
0	N	0.679708	0.190964	0.757319
0	N	0.878054	0.472495	0.0880184
0	N	0.521042	0.667408	0.9185
0	N	0.449668	0.873348	0.259168
0	N	0.252398	0.597277	0.565428
0	H	0.672173	0.418758	0.501185
0	H	0.650391	0.22931	0.821342
0	H	0.828879	0.396534	0.138532
0	H	0.473109	0.644524	0.00577967
0	H	0.480337	0.838204	0.327152
0	H	0.301459	0.669901	0.623163
0	H	0.552184	0.41255	0.457608
0	H	0.663594	0.118788	0.807565
0	H	0.946808	0.52359	0.149344
0	H	0.582546	0.647206	0.931446
0	H	0.465892	0.946919	0.304275
0	H	0.176054	0.546871	0.61849
0	H	0.652792	0.444271	0.341035
0	H	0.632215	0.168572	0.669974
0	H	0.910555	0.459747	0.999185
0	H	0.468592	0.616855	0.839341
0	H	0.495753	0.892239	0.171395
0	H	0.232194	0.617167	0.474566
0	C	0.62618	0.262396	0.285534
0	C	0.817946	0.349481	0.619814
0	C	0.72439	0.459422	0.945091
0	C	0.500728	0.798862	0.783504
0	C	0.311254	0.718741	0.117498
0	C	0.401811	0.598787	0.4315
0	O	0.689518	0.344319	0.21658
0	O	0.733897	0.322385	0.549167
0	O	0.742259	0.400955	0.872118
0	O	0.433665	0.716472	0.717008
0	O	0.396916	0.745223	0.0499471
0	O	0.380097	0.650252	0.350801
0	N	0.613236	0.160792	0.269827
0	N	0.923948	0.445955	0.609109
0	N	0.635538	0.475695	0.924357
0	N	0.512905	0.900279	0.771874
0	N	0.20319	0.627614	0.0954844
0	N	0.4939	0.58703	0.419805
0	H	0.571847	0.100041	0.344226
0	H	0.974273	0.475604	0.697108
0	H	0.605769	0.502659	0.00297198
0	H	0.561149	0.962726	0.842779
0	H	0.14265	0.59926	0.174628
0	H	0.524909	0.564382	0.501678
0	C	0.68772	0.148915	0.175244
0	C	0.945367	0.530709	0.508004
0	C	0.549389	0.411471	0.81904
0	C	0.437434	0.91526	0.682465
0	C	0.186193	0.545451	0.993646
0	C	0.580533	0.652451	0.31557
0	H	0.766717	0.234298	0.15534
0	H	0.861093	0.519156	0.477719
0	H	0.572946	0.356818	0.766794
0	H	0.355438	0.831652	0.665811
0	H	0.272334	0.571304	0.949437
0	H	0.556058	0.706047	0.261979
0	C	0.628717	0.108347	0.0381496
0	C	0.994316	0.513402	0.377414
0	C	0.551003	0.491415	0.712618
0	C	0.493576	0.951365	0.543255
0	C	0.114134	0.54509	0.875078
0	C	0.580496	0.573374	0.210294
0	O	0.649945	0.0453845	0.972237
0	O	0.0836531	0.597834	0.329587
0	O	0.494035	0.535231	0.728106
0	O	0.488547	0.0261636	0.482553
0	O	0.00655365	0.478561	0.871128
0	O	0.633336	0.525721	0.227506
0	O	0.572272	0.144071	0.988537
0	O	0.940132	0.423199	0.317647
0	O	0.602417	0.503196	0.605003
0	O	0.533368	0.899943	0.490678
0	O	0.168331	0.605429	0.77817
0	O	0.533002	0.566391	0.101141
0	C	0.42716	0.21614	0.356305
0	C	0.865233	0.205913	0.690929
0	C	0.886282	0.64906	0.035688
0	C	0.702547	0.844256	0.844263
0	C	0.260673	0.855829	0.206649
0	C	0.236856	0.414493	0.526118
0	H	0.401706	0.136008	0.305172
0	H	0.950655	0.269668	0.646558
0	H	0.829143	0.678184	0.00306378
0	H	0.728663	0.925823	0.797037
0	H	0.173054	0.791543	0.167417
0	H	0.291751	0.3834	0.491182
0	C	0.354657	0.187345	0.482294
0	C	0.887553	0.159105	0.815196
0	C	0.944961	0.708896	0.165197
0	C	0.778178	0.867563	0.966441
0	C	0.243083	0.899583	0.336731
0	C	0.183838	0.359147	0.659308
0	H	0.362676	0.128468	0.544274
0	H	0.947046	0.225683	0.882587
0	H	0.882206	0.69321	0.24269
0	H	0.773948	0.924829	0.0350899
0	H	0.183896	0.830142	0.40224
0	H	0.250638	0.376629	0.732386
0	H	0.263232	0.147515	0.457314
0	H	0.925459	0.11088	0.789711
0	H	0.998557	0.79902	0.149543
0	H	0.868214	0.906117	0.937591
0	H	0.204958	0.948671	0.319097
0	H	0.128386	0.26855	0.648291
0	H	0.378453	0.260304	0.542856
0	H	0.808651	0.102886	0.871979
0	H	0.00182099	0.683918	0.205893
0	H	0.753993	0.791699	0.0212079
0	H	0.323509	0.954118	0.391482
0	H	0.130995	0.387333	0.702598
0	C	0.407651	0.287605	0.259364
0	C	0.7975	0.116042	0.585155
0	C	0.974847	0.675314	0.925781
0	C	0.718062	0.773215	0.742216
0	C	0.32294	0.947521	0.10154
0	C	0.145015	0.386852	0.419925
0	H	0.403583	0.353156	0.312755
0	H	0.721868	0.0407763	0.628724
0	H	0.057261	0.69422	0.969102
0	H	0.717881	0.703651	0.79144
0	H	0.393886	0.025938	0.145711
0	H	0.0649994	0.372074	0.465362
0	H	0.482387	0.333758	0.191175
0	H	0.762602	0.147054	0.509878
0	H	0.946321	0.60133	0.861399
0	H	0.643614	0.73171	0.673055
0	H	0.364745	0.92362	0.0266088
0	H	0.173604	0.458647	0.352208
0	C	0.298597	0.217242	0.178047
0	C	0.87288	0.0829163	0.516055
0	C	0.995168	0.771667	0.839231
0	C	0.829338	0.843076	0.66468
0	C	0.239884	0.970026	0.0308402
0	C	0.11741	0.286366	0.336494
0	H	0.308041	0.164046	0.107735
0	H	0.945281	0.153258	0.463759
0	H	0.921651	0.745395	0.773314
0	H	0.825332	0.902071	0.598734
0	H	0.177911	0.898666	0.97065
0	H	0.191626	0.30346	0.276956
0	H	0.27913	0.270034	0.119947
0	H	0.822709	0.0170308	0.443157
0	H	0.0713878	0.802224	0.776657
0	H	0.846393	0.790269	0.603057
0	H	0.286766	0.0418858	0.964487
0	H	0.0467028	0.264749	0.267766
0	H	0.223952	0.163321	0.240563
0	H	0.908959	0.0508614	0.586429
0	H	0.00771143	0.841606	0.898438
0	H	0.903295	0.891569	0.730383
0	H	0.190851	0.987809	0.100537
0	H	0.0908668	0.21269	0.397395
0	C	0.725453	0.0747322	0.232197
0	C	0.0234198	0.646936	0.565014
0	C	0.429029	0.340516	0.877874
0	C	0.407939	0.99492	0.741837
0	C	0.130825	0.430661	0.0559144
0	C	0.699092	0.724906	0.377227
0	H	0.810903	0.125194	0.278216
0	H	0.973149	0.679008	0.605132
0	H	0.421409	0.274647	0.94206
0	H	0.318363	0.949902	0.775606
0	H	0.19357	0.422666	0.113187
0	H	0.702385	0.788057	0.442828
0	H	0.73094	0.0249348	0.152596
0	H	0.0820294	0.705936	0.488892
0	H	0.364245	0.301644	0.79961
0	H	0.418191	0.0567552	0.668533
0	H	0.0931391	0.365369	0.980211
0	H	0.765592	0.766864	0.301309
0	H	0.669159	0.0182817	0.310798
0	H	0.0771914	0.648427	0.647241
0	H	0.406946	0.390834	0.938204
0	H	0.45897	0.0397103	0.830635
0	H	0.0616204	0.413511	0.125664
0	H	0.72162	0.674828	0.437281
