#******************************************
#
# CIF file created by Zeo++
# Zeo++ is an open source package to
# analyze microporous materials
#
#*******************************************

_cell_length_a		27.7561(0)
_cell_length_b		12.6602(0)
_cell_length_c		11.3356(0)
_cell_angle_alpha		90(0)
_cell_angle_beta		90(0)
_cell_angle_gamma		90(0)

_symmetry_space_group_name_H-M		'P1'
_symmetry_Int_Tables_number		1
_symmetry_cell_setting		Monoclinic

loop_
_symmetry_equiv_pos_as_xyz
'+x,+y,+z'

loop_
_atom_site_label
_atom_site_type_symbol
_atom_site_fract_x
_atom_site_fract_y
_atom_site_fract_z
0	O	0.845004	0.174212	0.769414
0	O	0.159687	0.855202	0.769284
0	O	0.658845	0.674098	0.29188
0	O	0.345846	0.35561	0.29198
0	H	0.846052	0.0950944	0.789939
0	H	0.158649	0.934344	0.789765
0	H	0.658106	0.594823	0.272078
0	H	0.346578	0.434939	0.27222
0	O	0.73629	0.971134	0.622877
0	O	0.268234	0.0582108	0.622775
0	O	0.76784	0.471664	0.436139
0	O	0.236849	0.557786	0.436493
0	H	0.744373	0.0456739	0.583635
0	H	0.260131	0.983637	0.583569
0	H	0.759708	0.546224	0.47618
0	H	0.244948	0.483044	0.476322
0	O	0.995981	0.671001	0.779714
0	O	0.0087442	0.358064	0.779548
0	O	0.508581	0.169997	0.279056
0	O	0.496205	0.859284	0.279226
0	H	0.0300729	0.62629	0.763719
0	H	0.974659	0.402766	0.763543
0	H	0.474508	0.124725	0.295182
0	H	0.530234	0.904697	0.295308
0	N	0.845044	0.375374	0.689246
0	N	0.159638	0.653949	0.689228
0	N	0.658903	0.876327	0.370564
0	N	0.345875	0.153359	0.370571
0	N	0.922656	0.421123	0.717895
0	N	0.0820585	0.608045	0.718116
0	N	0.581564	0.922759	0.34077
0	N	0.423188	0.106789	0.340642
0	N	0.737237	0.772204	0.706598
0	N	0.267576	0.257165	0.706734
0	N	0.767123	0.272763	0.35164
0	N	0.237322	0.756688	0.351968
0	N	0.741053	0.633384	0.582749
0	N	0.263692	0.395823	0.582672
0	N	0.763249	0.133808	0.475543
0	N	0.241137	0.895575	0.475922
0	N	0.913463	0.784825	0.825268
0	N	0.0913212	0.24439	0.825032
0	N	0.591536	0.282549	0.237175
0	N	0.41324	0.746576	0.237403
0	N	0.882797	0.948713	0.793494
0	N	0.122054	0.0805838	0.79315
0	N	0.622784	0.445634	0.270669
0	N	0.381904	0.583625	0.271158
0	C	0.886742	0.357534	0.756617
0	C	0.11795	0.67182	0.756613
0	C	0.617203	0.857826	0.303548
0	C	0.387573	0.171846	0.303552
0	H	0.889259	0.300437	0.828182
0	H	0.115406	0.729076	0.828095
0	H	0.614508	0.799445	0.233304
0	H	0.390278	0.230299	0.233371
0	C	0.90429	0.481212	0.624583
0	C	0.10043	0.547787	0.62496
0	C	0.600084	0.98435	0.432633
0	C	0.40466	0.045081	0.432379
0	H	0.926122	0.538713	0.579238
0	H	0.0786438	0.490152	0.579847
0	H	0.578443	0.0430404	0.476425
0	H	0.426282	0.986237	0.476054
0	C	0.856384	0.453756	0.60521
0	C	0.148317	0.575347	0.605439
0	C	0.647891	0.956518	0.452675
0	C	0.35686	0.0729724	0.452513
0	H	0.831098	0.481448	0.539883
0	H	0.17363	0.547529	0.540087
0	H	0.673312	0.985102	0.517362
0	H	0.331476	0.0444013	0.51711
0	C	0.800289	0.319902	0.700147
0	C	0.204387	0.70948	0.700006
0	C	0.703501	0.820465	0.360234
0	C	0.301256	0.209149	0.360195
0	C	0.757279	0.364791	0.666679
0	C	0.247388	0.664605	0.666484
0	C	0.746386	0.865721	0.393978
0	C	0.258385	0.163813	0.39389
0	H	0.756118	0.444902	0.629654
0	H	0.248549	0.584465	0.629496
0	H	0.747424	0.945942	0.430612
0	H	0.257377	0.083587	0.430487
0	C	0.713065	0.307652	0.676851
0	C	0.291607	0.721752	0.676632
0	C	0.790598	0.808691	0.383922
0	C	0.214139	0.22078	0.383711
0	C	0.668823	0.353362	0.636801
0	C	0.335843	0.676054	0.636506
0	C	0.834682	0.854819	0.424486
0	C	0.170067	0.174521	0.424178
0	H	0.670017	0.431569	0.596355
0	H	0.334641	0.597888	0.59597
0	H	0.833297	0.932651	0.465885
0	H	0.171476	0.0966752	0.465592
0	C	0.626147	0.299492	0.647825
0	C	0.378531	0.729881	0.647644
0	C	0.877467	0.801631	0.412404
0	C	0.12724	0.227544	0.411992
0	H	0.592391	0.333768	0.617209
0	H	0.412282	0.695609	0.616992
0	H	0.91118	0.836037	0.443112
0	H	0.0935409	0.193012	0.442586
0	C	0.625617	0.196913	0.699312
0	C	0.37908	0.832383	0.699327
0	C	0.878198	0.699561	0.359629
0	C	0.126456	0.329597	0.359189
0	H	0.591286	0.155719	0.7082
0	H	0.413419	0.87353	0.708359
0	H	0.912656	0.659078	0.349726
0	H	0.0919722	0.369955	0.349156
0	C	0.667674	0.150801	0.737027
0	C	0.337014	0.87847	0.737029
0	C	0.836255	0.652935	0.321985
0	C	0.168394	0.376363	0.321711
0	H	0.667168	0.0718005	0.775498
0	H	0.337527	0.957431	0.775604
0	H	0.836956	0.5743	0.282602
0	H	0.167663	0.454982	0.282327
0	C	0.712861	0.204386	0.726337
0	C	0.291845	0.824947	0.726189
0	C	0.790962	0.705843	0.333879
0	C	0.213766	0.323532	0.333813
0	C	0.757823	0.157261	0.761134
0	C	0.24686	0.872184	0.761067
0	C	0.746075	0.658241	0.299038
0	C	0.258588	0.371339	0.299027
0	C	0.800422	0.212755	0.745259
0	C	0.204248	0.816626	0.745114
0	C	0.70339	0.713321	0.315381
0	C	0.301315	0.316324	0.315383
0	C	0.759975	0.0494139	0.809459
0	C	0.244724	0.979848	0.809423
0	C	0.744021	0.550668	0.250052
0	C	0.260575	0.478995	0.250212
0	C	0.774225	0.0309629	0.929465
0	C	0.230485	0.998371	0.929436
0	C	0.729523	0.532892	0.130128
0	C	0.275071	0.49697	0.130316
0	C	0.786479	0.115879	0.00736493
0	C	0.218157	0.913422	0.00726225
0	C	0.716564	0.618017	0.0529853
0	C	0.288025	0.411904	0.0531193
0	H	0.784504	0.196754	0.974093
0	H	0.22007	0.832629	0.973944
0	H	0.718213	0.698656	0.0867869
0	H	0.286341	0.331238	0.0868105
0	C	0.80153	0.0961679	0.120434
0	C	0.203079	0.933111	0.120333
0	C	0.70118	0.598747	0.940044
0	C	0.30342	0.431325	0.940216
0	H	0.811965	0.160565	0.179062
0	H	0.192542	0.868729	0.178856
0	H	0.690139	0.663299	0.882262
0	H	0.314431	0.366802	0.882365
0	C	0.804322	0.990653	0.163569
0	C	0.200437	0.0385826	0.163615
0	C	0.698926	0.493457	0.896128
0	C	0.305727	0.536647	0.896414
0	H	0.816246	0.977855	0.254099
0	H	0.188433	0.0513527	0.254155
0	H	0.686876	0.480726	0.80567
0	H	0.317813	0.549428	0.805993
0	C	0.792211	0.907516	0.0920024
0	C	0.212591	0.1217	0.092146
0	C	0.711634	0.410251	0.967032
0	C	0.293015	0.619796	0.967389
0	H	0.793878	0.826506	0.124924
0	H	0.211021	0.202677	0.125157
0	H	0.710264	0.329433	0.933529
0	H	0.294402	0.700624	0.933961
0	C	0.777177	0.925663	0.972789
0	C	0.22763	0.103593	0.972885
0	C	0.726875	0.427808	0.0862229
0	C	0.277731	0.602104	0.0865088
0	C	0.765628	0.839234	0.897132
0	C	0.239235	0.190046	0.897258
0	C	0.738728	0.341057	0.161373
0	C	0.265807	0.688733	0.16172
0	H	0.768316	0.758708	0.931486
0	H	0.236619	0.270546	0.931699
0	H	0.736177	0.260786	0.126296
0	H	0.268356	0.769072	0.126785
0	C	0.751212	0.857372	0.782766
0	C	0.253595	0.17197	0.782847
0	C	0.753124	0.358382	0.275897
0	C	0.251345	0.671193	0.276167
0	C	0.749504	0.963848	0.73705
0	C	0.255243	0.0655026	0.737051
0	C	0.754729	0.464825	0.322058
0	C	0.249835	0.564742	0.32233
0	C	0.690512	0.757116	0.661104
0	C	0.314311	0.272463	0.661395
0	C	0.813878	0.257238	0.396875
0	C	0.190523	0.77235	0.396835
0	H	0.660565	0.807315	0.682684
0	H	0.344303	0.222204	0.683279
0	H	0.843887	0.307146	0.375068
0	H	0.1605	0.722358	0.374733
0	C	0.693562	0.670458	0.585959
0	C	0.31122	0.35899	0.586106
0	C	0.81078	0.170621	0.472094
0	C	0.193588	0.858929	0.472106
0	H	0.665535	0.634446	0.533961
0	H	0.339278	0.395255	0.533984
0	H	0.838824	0.134287	0.524058
0	H	0.165529	0.895224	0.523789
0	C	0.767368	0.695814	0.655664
0	C	0.237391	0.333341	0.655551
0	C	0.736971	0.196495	0.402907
0	C	0.267467	0.832796	0.403476
0	H	0.805586	0.689258	0.67318
0	H	0.199353	0.339586	0.6726
0	H	0.698661	0.190383	0.385807
0	H	0.305857	0.838822	0.386646
0	C	0.884817	0.867665	0.871082
0	C	0.120007	0.161591	0.87079
0	C	0.620809	0.364889	0.192706
0	C	0.383919	0.66427	0.193064
0	H	0.86825	0.865778	0.957197
0	H	0.136561	0.163445	0.956879
0	H	0.637727	0.362923	0.107051
0	H	0.366986	0.666175	0.107402
0	C	0.910982	0.919006	0.696698
0	C	0.093833	0.110255	0.696403
0	C	0.593896	0.416253	0.366349
0	C	0.410812	0.613053	0.366791
0	H	0.916021	0.971078	0.622956
0	H	0.0888182	0.0582539	0.622648
0	H	0.5887	0.46821	0.44011
0	H	0.415984	0.561088	0.440604
0	C	0.930185	0.81846	0.714481
0	C	0.0745801	0.210747	0.714267
0	C	0.574283	0.31624	0.347447
0	C	0.430486	0.712982	0.347722
0	H	0.954147	0.771176	0.661202
0	H	0.0505628	0.257936	0.66106
0	H	0.549699	0.269462	0.399582
0	H	0.455087	0.759793	0.399769
0	C	0.922074	0.684472	0.88012
0	C	0.0826507	0.344678	0.879983
0	C	0.582842	0.182877	0.180977
0	C	0.421919	0.846214	0.181135
0	C	0.887439	0.640491	0.951893
0	C	0.117273	0.388706	0.951763
0	C	0.617713	0.13883	0.109954
0	C	0.387015	0.890161	0.110097
0	H	0.85286	0.67954	0.965719
0	H	0.151874	0.349724	0.965567
0	H	0.652673	0.176856	0.0983532
0	H	0.352055	0.852108	0.0985877
0	C	0.89586	0.542101	0.00966859
0	C	0.108816	0.487047	0.00965222
0	C	0.60908	0.0417194	0.0497293
0	C	0.39564	0.987234	0.0498179
0	C	0.858488	0.492615	0.0769507
0	C	0.146135	0.536606	0.0768808
0	C	0.646388	0.992986	0.981838
0	C	0.358307	0.035898	0.981905
0	H	0.823432	0.531073	0.0817858
0	H	0.181279	0.498158	0.0816691
0	H	0.681607	0.031209	0.978319
0	H	0.323099	0.997659	0.978447
0	C	0.866558	0.397912	0.132302
0	C	0.138054	0.631234	0.132335
0	C	0.638166	0.899639	0.92387
0	C	0.366517	0.129202	0.923837
0	H	0.83806	0.358881	0.181522
0	H	0.16652	0.670344	0.181555
0	H	0.666631	0.861272	0.873941
0	H	0.338048	0.167496	0.873862
0	C	0.912644	0.348789	0.125183
0	C	0.09192	0.680201	0.125325
0	C	0.591894	0.851175	0.929203
0	C	0.412773	0.177751	0.929134
0	H	0.918307	0.273974	0.170594
0	H	0.0862164	0.754957	0.170839
0	H	0.586073	0.777333	0.88197
0	H	0.418571	0.251552	0.881824
0	C	0.949098	0.394753	0.0617291
0	C	0.0554806	0.63418	0.0618982
0	C	0.555439	0.896492	0.993253
0	C	0.449239	0.132532	0.993243
0	H	0.984448	0.357264	0.0564818
0	H	0.0201132	0.671386	0.0567646
0	H	0.519956	0.859565	0.997229
0	H	0.484673	0.169381	0.99723
0	C	0.941517	0.492036	0.99959
0	C	0.0631098	0.53695	0.999645
0	C	0.563165	0.992539	0.0577073
0	C	0.441534	0.0364997	0.0577353
0	C	0.978007	0.538068	0.926287
0	C	0.0266439	0.490907	0.926307
0	C	0.526654	0.0381226	0.131185
0	C	0.478064	0.991006	0.131238
0	C	0.967372	0.628813	0.861329
0	C	0.0373205	0.400225	0.861268
0	C	0.537243	0.128047	0.197616
0	C	0.467506	0.901127	0.197712
