#******************************************
#
# CIF file created by Zeo++
# Zeo++ is an open source package to
# analyze microporous materials
#
#*******************************************

_cell_length_a		24.0487(0)
_cell_length_b		17.8733(0)
_cell_length_c		20.3981(0)
_cell_angle_alpha		90(0)
_cell_angle_beta		94.0258(0)
_cell_angle_gamma		90(0)

_symmetry_space_group_name_H-M		'P1'
_symmetry_Int_Tables_number		1
_symmetry_cell_setting		Monoclinic

loop_
_symmetry_equiv_pos_as_xyz
'+x,+y,+z'

loop_
_atom_site_label
_atom_site_type_symbol
_atom_site_fract_x
_atom_site_fract_y
_atom_site_fract_z
0	O	0.14838	0.344528	0.970748
0	O	0.979524	0.335612	0.506111
0	O	0.977145	0.61642	0.930404
0	O	0.183113	0.594582	0.453812
0	O	0.750727	0.922262	0.981779
0	O	0.476034	0.829711	0.469244
0	O	0.411229	0.0501457	0.995203
0	O	0.673572	0.135364	0.50581
0	O	0.0639123	0.085597	0.505824
0	O	0.0934319	0.0472525	0.917541
0	O	0.0729314	0.85976	0.413943
0	O	0.0889525	0.885209	0.00108171
0	O	0.572098	0.592883	0.491946
0	O	0.569199	0.571617	0.954336
0	O	0.580973	0.372426	0.47932
0	O	0.572781	0.416223	0.041996
0	O	0.414468	0.817322	0.765451
0	O	0.822272	0.705214	0.57128
0	O	0.717106	0.149008	0.192769
0	O	0.321268	0.234016	0.356302
0	O	0.836914	0.25807	0.843142
0	O	0.319004	0.192423	0.576537
0	O	0.340715	0.724987	0.129177
0	O	0.87579	0.749099	0.408018
0	C	0.246472	0.16808	0.804951
0	C	0.898454	0.100592	0.654275
0	C	0.896321	0.814352	0.10624
0	C	0.253388	0.821361	0.307364
0	C	0.751687	0.695143	0.79515
0	C	0.387647	0.625312	0.645311
0	C	0.398392	0.278813	0.17641
0	C	0.766479	0.336986	0.329793
0	C	0.221281	0.18214	0.741863
0	C	0.916852	0.114873	0.720115
0	C	0.92179	0.795933	0.168134
0	C	0.236187	0.801978	0.2422
0	C	0.726305	0.710855	0.73247
0	C	0.410359	0.642442	0.708907
0	C	0.424177	0.261164	0.238561
0	C	0.74005	0.324334	0.267145
0	C	0.222633	0.127689	0.692484
0	C	0.922054	0.0569906	0.766473
0	C	0.914523	0.841895	0.222787
0	C	0.235182	0.856055	0.192611
0	C	0.716791	0.652844	0.686739
0	C	0.414916	0.587532	0.757982
0	C	0.435845	0.317849	0.284976
0	C	0.738902	0.379908	0.218414
0	C	0.248776	0.0583758	0.706571
0	C	0.906623	0.983784	0.747274
0	C	0.882545	0.907582	0.214524
0	C	0.251257	0.930041	0.208252
0	C	0.730651	0.578575	0.704208
0	C	0.396669	0.514124	0.74386
0	C	0.423923	0.39301	0.268797
0	C	0.765132	0.449055	0.232038
0	C	0.273237	0.043961	0.769598
0	C	0.888918	0.969017	0.681683
0	C	0.857783	0.92682	0.152497
0	C	0.264558	0.950769	0.273664
0	C	0.756386	0.563505	0.766345
0	C	0.373039	0.497565	0.680833
0	C	0.397765	0.410491	0.207312
0	C	0.792451	0.46096	0.294152
0	C	0.27353	0.0996669	0.818166
0	C	0.884336	0.0273867	0.635327
0	C	0.862598	0.878381	0.0989808
0	C	0.266703	0.895895	0.323182
0	C	0.768153	0.621626	0.811266
0	C	0.366666	0.55331	0.632168
0	C	0.383869	0.353521	0.161725
0	C	0.794358	0.40483	0.342613
0	C	0.242106	0.222184	0.858629
0	C	0.89941	0.161974	0.606354
0	C	0.906783	0.767479	0.0485764
0	C	0.255344	0.762426	0.357829
0	C	0.761502	0.752888	0.846275
0	C	0.391953	0.680888	0.592867
0	C	0.387489	0.22047	0.125815
0	C	0.760076	0.281642	0.382006
0	C	0.237681	0.202614	0.921711
0	C	0.904162	0.156471	0.541272
0	C	0.932022	0.791899	0.995149
0	C	0.244746	0.771619	0.421014
0	C	0.7594	0.735846	0.910546
0	C	0.394075	0.665825	0.528507
0	C	0.386467	0.235764	0.0609281
0	C	0.757575	0.297028	0.446266
0	C	0.226863	0.25877	0.976357
0	C	0.921085	0.224635	0.500439
0	C	0.936311	0.738842	0.937068
0	C	0.238995	0.706664	0.469106
0	C	0.77501	0.793761	0.967251
0	C	0.412201	0.724533	0.478723
0	C	0.373873	0.173818	0.00629635
0	C	0.739295	0.238641	0.49633
0	C	0.189771	0.320953	0.947843
0	C	0.965772	0.267453	0.543562
0	C	0.946257	0.657591	0.957814
0	C	0.217183	0.636783	0.433603
0	C	0.763808	0.873394	0.945068
0	C	0.460933	0.767442	0.513484
0	C	0.392443	0.0970941	0.0301479
0	C	0.690105	0.196664	0.461363
0	C	0.213402	0.350283	0.885656
0	C	0.936916	0.290334	0.605088
0	C	0.911552	0.634746	0.0125928
0	C	0.24635	0.62554	0.371185
0	C	0.775292	0.886441	0.874162
0	C	0.438019	0.801624	0.575291
0	C	0.381271	0.0847339	0.101178
0	C	0.713016	0.161742	0.399687
0	C	0.237424	0.303032	0.84436
0	C	0.904497	0.239446	0.632814
0	C	0.893	0.687692	0.0533774
0	C	0.264762	0.684248	0.337282
0	C	0.773586	0.830384	0.829225
0	C	0.404963	0.759387	0.611511
0	C	0.379346	0.142209	0.144454
0	C	0.74657	0.203304	0.363423
0	C	0.206551	0.192414	0.0149291
0	C	0.93775	0.169352	0.448372
0	C	0.978727	0.776124	0.896046
0	C	0.20275	0.758816	0.507186
0	C	0.748842	0.763264	0.0309573
0	C	0.420078	0.659096	0.431917
0	C	0.395787	0.205418	0.940586
0	C	0.733738	0.304021	0.543944
0	C	0.226753	0.138885	0.9651
0	C	0.911738	0.0350892	0.471199
0	C	0.990906	0.852704	0.919299
0	C	0.219406	0.896054	0.475953
0	C	0.735351	0.688846	0.00781467
0	C	0.403644	0.531734	0.485142
0	C	0.404576	0.281277	0.96222
0	C	0.747916	0.431281	0.488948
0	C	0.181282	0.184246	0.0686352
0	C	0.963393	0.177291	0.39474
0	C	0.997416	0.748238	0.842388
0	C	0.167255	0.747348	0.551602
0	C	0.741551	0.796339	0.0865133
0	C	0.436084	0.657411	0.372476
0	C	0.403591	0.171275	0.885675
0	C	0.723296	0.307258	0.605548
0	C	0.234794	0.0666712	0.965847
0	C	0.915765	0.105749	0.486802
0	C	0.960816	0.862224	0.979414
0	C	0.22067	0.823808	0.467492
0	C	0.742577	0.674524	0.949341
0	C	0.401623	0.604602	0.481453
0	C	0.398268	0.298215	0.0204018
0	C	0.750514	0.358451	0.493216
0	C	0.210049	0.431919	0.876215
0	C	0.944735	0.366681	0.632028
0	C	0.903619	0.554481	0.0261126
0	C	0.254208	0.54708	0.350665
0	C	0.788629	0.960846	0.857812
0	C	0.45263	0.876059	0.592402
0	C	0.372337	0.00970929	0.119643
0	C	0.697621	0.0876466	0.382335
0	C	0.21836	0.476523	0.934784
0	C	0.900354	0.418763	0.619891
0	C	0.883075	0.498087	0.976866
0	C	0.2973	0.505701	0.385125
0	C	0.801225	0.0243604	0.845194
0	C	0.464674	0.939706	0.607133
0	C	0.363986	0.945502	0.134452
0	C	0.684903	0.0242687	0.367309
0	C	0.199928	0.461859	0.817109
0	C	0.992836	0.386884	0.663037
0	C	0.916003	0.529373	0.0861882
0	C	0.218802	0.515172	0.306104
0	C	0.649571	0.0460297	0.763483
0	C	0.578325	0.894299	0.689498
0	C	0.489089	0.933926	0.197212
0	C	0.571927	0.0663405	0.282603
0	C	0.189415	0.493585	0.760555
0	C	0.0394929	0.411393	0.689987
0	C	0.928855	0.503594	0.144771
0	C	0.183621	0.479495	0.266745
0	C	0.690955	0.039951	0.727797
0	C	0.547276	0.904313	0.737319
0	C	0.464855	0.920098	0.249817
0	C	0.600959	0.0604822	0.232607
0	C	0.196597	0.139308	0.626379
0	C	0.946525	0.0725033	0.832665
0	C	0.94031	0.824602	0.287992
0	C	0.216427	0.838514	0.124797
0	C	0.694096	0.664799	0.619227
0	C	0.439948	0.606634	0.822933
0	C	0.458507	0.303379	0.352119
0	C	0.708898	0.365575	0.154938
0	C	0.158218	0.20192	0.605847
0	C	0.975717	0.145654	0.848722
0	C	0.977398	0.758941	0.30317
0	C	0.180507	0.772868	0.104826
0	C	0.651808	0.721573	0.597107
0	C	0.480678	0.669361	0.833603
0	C	0.500151	0.245496	0.373734
0	C	0.664926	0.306143	0.147807
0	C	0.114779	0.186575	0.561917
0	C	0.0246585	0.141703	0.885139
0	C	0.0204678	0.767223	0.349049
0	C	0.139299	0.784633	0.0573585
0	C	0.612117	0.700104	0.550249
0	C	0.523176	0.661263	0.880173
0	C	0.53992	0.265739	0.420953
0	C	0.619865	0.318358	0.105799
0	C	0.107645	0.109453	0.529047
0	C	0.0454128	0.0655548	0.912751
0	C	0.0287257	0.839616	0.388906
0	C	0.132987	0.860583	0.0221671
0	C	0.612876	0.622903	0.51725
0	C	0.526669	0.593601	0.926428
0	C	0.539912	0.342847	0.454355
0	C	0.616032	0.388022	0.0619328
0	C	0.163868	0.0699351	0.524961
0	C	0.994677	0.0211097	0.933239
0	C	0.972824	0.879079	0.396495
0	C	0.190151	0.897146	0.0171105
0	C	0.672294	0.591647	0.516579
0	C	0.468287	0.562963	0.935743
0	C	0.4807	0.374437	0.455672
0	C	0.674587	0.411693	0.0449744
0	C	0.195456	0.090318	0.57708
0	C	0.956519	0.0272812	0.883902
0	C	0.941985	0.867528	0.341549
0	C	0.219273	0.882592	0.0726218
0	C	0.699775	0.617252	0.569837
0	C	0.438814	0.569533	0.87918
0	C	0.452956	0.349942	0.402243
0	C	0.708005	0.402613	0.0983971
0	C	0.0682401	0.238775	0.545616
0	C	0.0641442	0.203738	0.901421
0	C	0.0654405	0.711204	0.362022
0	C	0.0943227	0.730182	0.038577
0	C	0.563344	0.747192	0.531548
0	C	0.571211	0.7131	0.888435
0	C	0.58807	0.217852	0.440429
0	C	0.570259	0.269001	0.10012
0	C	0.0787851	0.309752	0.509737
0	C	0.0414741	0.282971	0.918383
0	C	0.0496533	0.626392	0.361573
0	C	0.111146	0.650899	0.0143584
0	C	0.572679	0.826212	0.510601
0	C	0.561867	0.796993	0.868943
0	C	0.577917	0.138785	0.460791
0	C	0.579135	0.183965	0.116192
0	C	0.0274559	0.354199	0.491278
0	C	0.0599335	0.23731	0.973284
0	C	0.063236	0.659532	0.425439
0	C	0.0897215	0.702453	0.96445
0	C	0.524663	0.856102	0.467895
0	C	0.567212	0.781003	0.938562
0	C	0.624616	0.109397	0.505987
0	C	0.570095	0.203954	0.0477485
0	C	0.0166623	0.221232	0.561484
0	C	0.117406	0.20511	0.877181
0	C	0.121054	0.726018	0.348384
0	C	0.0421635	0.733712	0.0657907
0	C	0.511208	0.7203	0.531536
0	C	0.626708	0.688849	0.884421
0	C	0.640409	0.244466	0.442344
0	C	0.515882	0.295132	0.109483
0	C	0.177065	0.0234302	0.468236
0	C	0.99291	0.99584	0.00165227
0	C	0.959512	0.914303	0.458993
0	C	0.207283	0.932217	0.956233
0	C	0.691425	0.54432	0.463348
0	C	0.449216	0.541475	0.00014136
0	C	0.461924	0.420853	0.509599
0	C	0.686628	0.429347	0.976693
0	C	0.171047	0.0550332	0.398866
0	C	0.994463	0.0570101	0.0545796
0	C	0.972153	0.874259	0.524201
0	C	0.213094	0.883833	0.895899
0	C	0.678997	0.564491	0.391462
0	C	0.460993	0.598564	0.0572742
0	C	0.477546	0.401576	0.58097
0	C	0.669783	0.373664	0.922453
0	C	0.132437	0.00728554	0.413533
0	C	0.0406929	0.0189751	0.0512592
0	C	0.0059566	0.92932	0.512083
0	C	0.169562	0.928358	0.893598
0	C	0.648932	0.509808	0.413396
0	C	0.493551	0.540758	0.0599823
0	C	0.505046	0.457759	0.557354
0	C	0.638796	0.43402	0.923982
0	C	0.221451	0.96776	0.487282
0	C	0.963426	0.925327	0.0156769
0	C	0.910658	0.966004	0.45052
0	C	0.246482	0.995653	0.971193
0	C	0.743854	0.503682	0.484606
0	C	0.402699	0.492013	0.997188
0	C	0.408148	0.459285	0.489682
0	C	0.736761	0.479047	0.97141
0	C	0.295964	0.970574	0.788228
0	C	0.875039	0.892084	0.658514
0	C	0.831375	0.999972	0.141502
0	C	0.276632	0.0303015	0.290087
0	C	0.772155	0.488471	0.784369
0	C	0.357811	0.422226	0.662692
0	C	0.384991	0.487494	0.192187
0	C	0.81657	0.532204	0.312315
0	C	0.272748	0.898417	0.760277
0	C	0.906852	0.83113	0.673346
0	C	0.85669	0.0694812	0.172922
0	C	0.2478	0.0886025	0.26193
0	C	0.76426	0.414719	0.780087
0	C	0.368133	0.348525	0.665523
0	C	0.397866	0.560085	0.197892
0	C	0.815359	0.607074	0.310424
0	C	0.31667	0.841269	0.749798
0	C	0.896723	0.752988	0.65108
0	C	0.814845	0.124964	0.193259
0	C	0.258992	0.169566	0.271882
0	C	0.765876	0.335288	0.782385
0	C	0.371204	0.270607	0.656907
0	C	0.402068	0.639551	0.195863
0	C	0.821257	0.684633	0.320404
0	C	0.373935	0.849938	0.783304
0	C	0.85659	0.728791	0.60803
0	C	0.755083	0.119122	0.166723
0	C	0.292984	0.20244	0.317365
0	C	0.821545	0.319833	0.828426
0	C	0.32578	0.254148	0.598982
0	C	0.347976	0.66266	0.149266
0	C	0.865271	0.690394	0.381482
0	C	0.373201	0.89858	0.844454
0	C	0.782547	0.885455	0.582513
0	C	0.75053	0.0774471	0.101604
0	C	0.361756	0.0550289	0.374986
0	C	0.846574	0.394727	0.850825
0	C	0.297592	0.327104	0.579451
0	C	0.315504	0.591979	0.131296
0	C	0.885802	0.612296	0.398925
0	C	0.337956	0.953679	0.831366
0	C	0.82537	0.88679	0.617245
0	C	0.785661	0.0208483	0.106208
0	C	0.321998	0.04349	0.336634
0	C	0.813824	0.447196	0.82313
0	C	0.322556	0.380323	0.61668
0	C	0.344697	0.535031	0.157609
0	C	0.856052	0.565585	0.359486
0	C	0.193805	0.822087	0.718126
0	C	0.970752	0.752889	0.729951
0	C	0.937807	0.139875	0.216781
0	C	0.193125	0.155932	0.183798
0	C	0.74899	0.280773	0.723054
0	C	0.465574	0.115151	0.81296
0	C	0.42087	0.692213	0.255495
0	C	0.680991	0.855258	0.159194
0	C	0.217754	0.88804	0.745332
0	C	0.956616	0.826052	0.72015
0	C	0.912317	0.0780155	0.184133
0	C	0.202153	0.0862623	0.209056
0	C	0.710674	0.307608	0.666846
0	C	0.511164	0.0968396	0.797582
0	C	0.454497	0.661714	0.313868
0	C	0.636025	0.877398	0.173508
0	C	0.171604	0.766062	0.695929
0	C	0.00913977	0.726204	0.783751
0	C	0.960653	0.192264	0.244703
0	C	0.158241	0.172832	0.123933
0	C	0.790342	0.225505	0.711328
0	C	0.41236	0.139695	0.829353
0	C	0.383355	0.753561	0.263661
0	C	0.733166	0.826101	0.143698
0	C	0.30317	0.782652	0.711883
0	C	0.937545	0.702814	0.684149
0	C	0.831599	0.18048	0.233297
0	C	0.226002	0.21325	0.222492
0	C	0.720098	0.280112	0.787455
0	C	0.402631	0.218401	0.686362
0	C	0.451935	0.68828	0.192895
0	C	0.798179	0.742763	0.289499
0	C	0.404263	0.875787	0.907668
0	C	0.731567	0.884183	0.541916
0	C	0.717873	0.10956	0.0441668
0	C	0.409504	0.0700307	0.418921
0	C	0.900733	0.398609	0.892266
0	C	0.250697	0.334961	0.529263
0	C	0.261983	0.593175	0.0913287
0	C	0.929294	0.595483	0.451636
0	C	0.463601	0.893729	0.912776
0	C	0.679978	0.917637	0.56997
0	C	0.661785	0.0754001	0.0224148
0	C	0.466162	0.0446615	0.397957
0	C	0.948663	0.391395	0.850609
0	C	0.202638	0.385061	0.546314
0	C	0.209027	0.574275	0.124462
0	C	0.963635	0.524391	0.446355
0	C	0.394933	0.791437	0.921662
0	C	0.727874	0.820261	0.493506
0	C	0.728722	0.191842	0.0340491
0	C	0.403665	0.139104	0.460379
0	C	0.902803	0.335747	0.944496
0	C	0.239997	0.268801	0.484426
0	C	0.260142	0.646978	0.0342911
0	C	0.954809	0.662682	0.486685
0	C	0.380668	0.912874	0.96627
0	C	0.702675	0.958349	0.525464
0	C	0.702563	0.0605254	0.984886
0	C	0.445411	0.00461241	0.44425
0	C	0.913202	0.47203	0.929247
0	C	0.236231	0.413659	0.504881
0	C	0.227013	0.522333	0.0855773
0	C	0.924894	0.521788	0.488474
0	H	0.325927	0.588863	0.951651
0	H	0.82375	0.583541	0.540071
0	H	0.742913	0.493651	0.920144
0	H	0.340298	0.360555	0.442083
0	H	0.855918	0.020773	0.00128742
0	H	0.307931	0.0237874	0.553609
0	H	0.327563	0.825711	0.0484968
0	H	0.835316	0.882728	0.381727
0	H	0.265045	0.284737	0.00086484
0	H	0.886981	0.262608	0.48228
0	H	0.894954	0.738725	0.907276
0	H	0.278531	0.69208	0.498359
0	H	0.821595	0.789532	0.978307
0	H	0.379415	0.763838	0.459023
0	H	0.327002	0.170745	0.99747
0	H	0.771853	0.198337	0.515032
0	H	0.293529	0.088551	0.86693
0	H	0.870391	0.0153864	0.584276
0	H	0.841258	0.892222	0.051552
0	H	0.278615	0.911538	0.37398
0	H	0.789645	0.608784	0.858946
0	H	0.346529	0.539735	0.583964
0	H	0.362312	0.36788	0.114397
0	H	0.816709	0.41495	0.390335
0	H	0.117251	0.484081	0.63242
0	H	0.0248144	0.537157	0.85933
0	H	0.0401934	0.440513	0.307827
0	H	0.0988674	0.496623	0.124976
0	H	0.69903	0.11542	0.623715
0	H	0.56503	0.966257	0.853681
0	H	0.526665	0.854414	0.339017
0	H	0.585294	0.0156934	0.11043
0	H	0.147745	0.508381	0.740764
0	H	0.0702457	0.442793	0.661783
0	H	0.970132	0.482672	0.160063
0	H	0.14861	0.447488	0.282919
0	H	0.69167	0.0630671	0.675597
0	H	0.560724	0.934348	0.7845
0	H	0.489041	0.899869	0.296513
0	H	0.587573	0.0341319	0.183781
0	H	0.221412	0.508862	0.727821
0	H	0.0527075	0.404925	0.741642
0	H	0.899703	0.500357	0.182834
0	H	0.186041	0.477388	0.213563
0	H	0.731464	0.0152212	0.737764
0	H	0.504483	0.887089	0.741153
0	H	0.421942	0.92434	0.261096
0	H	0.643315	0.0798224	0.227761
0	H	0.336895	0.564368	0.924402
0	H	0.823257	0.602855	0.506242
0	H	0.775498	0.452606	0.992105
0	H	0.346448	0.321461	0.428646
0	H	0.871815	0.0308828	0.971361
0	H	0.305783	0.0663127	0.558324
0	H	0.313654	0.823361	0.0136077
0	H	0.820067	0.85581	0.357235
0	H	0.351227	0.779539	0.930163
0	H	0.762966	0.821891	0.461713
0	H	0.77181	0.20122	0.0212545
0	H	0.366842	0.135493	0.489579
0	H	0.866387	0.337993	0.973775
0	H	0.202683	0.276278	0.451063
0	H	0.289306	0.628782	0.997591
0	H	0.991811	0.647746	0.51976
0	H	0.406319	0.757406	0.879861
0	H	0.729615	0.765843	0.518632
0	H	0.722086	0.225068	0.0780004
0	H	0.398782	0.189638	0.429894
0	H	0.903224	0.280022	0.921792
0	H	0.275495	0.258701	0.454423
0	H	0.272188	0.704023	0.0501377
0	H	0.924915	0.690131	0.516994
0	H	0.152287	0.718637	0.675867
0	H	0.0435041	0.689693	0.772942
0	H	0.98023	0.236667	0.269507
0	H	0.113029	0.173747	0.127433
0	H	0.784028	0.191105	0.667968
0	H	0.37797	0.131821	0.79122
0	H	0.388156	0.785377	0.308603
0	H	0.766992	0.828707	0.183155
0	H	0.259044	0.992505	0.51501
0	H	0.94356	0.927859	0.0625394
0	H	0.873202	0.941309	0.424354
0	H	0.288646	0.977116	0.989709
0	H	0.780662	0.541587	0.49916
0	H	0.386103	0.474641	0.0424966
0	H	0.37245	0.42129	0.476038
0	H	0.731483	0.532119	0.997583
0	H	0.0960908	0.974897	0.404127
0	H	0.08251	0.00508471	0.0639615
0	H	0.040036	0.965573	0.522304
0	H	0.132175	0.951579	0.872367
0	H	0.617797	0.468374	0.409886
0	H	0.526906	0.505764	0.076857
0	H	0.535013	0.500738	0.558963
0	H	0.605275	0.468849	0.908116
0	H	0.108837	0.3463	0.538951
0	H	0.0671555	0.331331	0.904873
0	H	0.0787775	0.588131	0.339427
0	H	0.0862889	0.603247	0.0299874
0	H	0.578841	0.863759	0.554446
0	H	0.595346	0.823502	0.843323
0	H	0.573271	0.101118	0.416949
0	H	0.547219	0.156806	0.14386
0	H	0.0388491	0.449152	0.271064
0	H	0.0764114	0.498315	0.149642
0	H	0.0947027	0.498815	0.607106
0	H	0.0310669	0.502818	0.838714
0	H	0.528469	0.894417	0.353232
0	H	0.5569	0.00295353	0.121733
0	H	0.697876	0.0765834	0.607075
0	H	0.595429	0.959585	0.845595
0	H	0.190413	0.0914264	0.367258
0	H	0.969587	0.0991431	0.0731264
0	H	0.957546	0.830792	0.552947
0	H	0.239107	0.843423	0.876937
0	H	0.691412	0.600684	0.354888
0	H	0.445722	0.650825	0.0708589
0	H	0.46794	0.364433	0.618198
0	H	0.680461	0.321829	0.902988
0	H	0.181222	0.0350014	0.193994
0	H	0.941212	0.0348349	0.168536
0	H	0.976491	0.874579	0.743074
0	H	0.187669	0.932566	0.755118
0	H	0.597247	0.896165	0.18526
0	H	0.49795	0.64749	0.306439
0	H	0.550617	0.0814227	0.784742
0	H	0.668647	0.323866	0.678987
0	H	0.254172	0.32241	0.799103
0	H	0.881932	0.252023	0.67608
0	H	0.868315	0.671978	0.0943058
0	H	0.286358	0.676536	0.292372
0	H	0.781288	0.841728	0.777833
0	H	0.388873	0.780778	0.656532
0	H	0.37142	0.131406	0.195854
0	H	0.763533	0.181343	0.319196
0	H	0.199569	0.234796	0.731955
0	H	0.927676	0.171869	0.735518
0	H	0.948288	0.74649	0.1731
0	H	0.223779	0.74468	0.23024
0	H	0.713857	0.76788	0.719543
0	H	0.425835	0.698979	0.72036
0	H	0.43553	0.203513	0.250625
0	H	0.718985	0.270898	0.256315
0	H	0.40929	0.917738	0.0097651
0	H	0.705242	0.00638286	0.496018
0	H	0.719911	0.0343339	0.944826
0	H	0.44626	0.959636	0.477533
0	H	0.952711	0.49939	0.919051
0	H	0.249291	0.457809	0.475445
0	H	0.224384	0.470168	0.0612166
0	H	0.902059	0.493577	0.522948
0	H	0.512845	0.861664	0.0720406
0	H	0.653128	0.821085	0.391173
0	H	0.613388	0.180664	0.919748
0	H	0.473739	0.16663	0.563886
0	H	0.0139415	0.403667	0.0517857
0	H	0.122333	0.297198	0.358862
0	H	0.127389	0.505759	0.953899
0	H	0.0737374	0.645723	0.584481
0	H	0.477371	0.940779	0.885038
0	H	0.650404	0.908219	0.604713
0	H	0.620369	0.0707462	0.0348354
0	H	0.496408	0.0564912	0.3647
0	H	0.942776	0.412708	0.801032
0	H	0.16772	0.387472	0.574204
0	H	0.181126	0.59558	0.156869
0	H	0.996535	0.499991	0.422784
0	H	0.514093	0.854789	0.035165
0	H	0.64	0.816475	0.356046
0	H	0.594454	0.177095	0.888217
0	H	0.482356	0.184487	0.597271
0	H	0.0347795	0.38174	0.0326256
0	H	0.124274	0.309942	0.394956
0	H	0.130211	0.467887	0.971668
0	H	0.045959	0.640889	0.564022
0	H	0.0082786	0.168924	0.586973
0	H	0.131256	0.159185	0.848464
0	H	0.133184	0.780769	0.333096
0	H	0.0326298	0.779515	0.0971957
0	H	0.502885	0.661965	0.543761
0	H	0.636131	0.630299	0.880965
0	H	0.649381	0.302896	0.431052
0	H	0.508425	0.353916	0.115581
0	H	0.163797	0.2553	0.630955
0	H	0.95783	0.196729	0.827658
0	H	0.971079	0.709111	0.273074
0	H	0.186375	0.720891	0.131986
0	H	0.651158	0.774852	0.62292
0	H	0.477161	0.716286	0.799292
0	H	0.500193	0.192464	0.347575
0	H	0.669134	0.257885	0.180709
0	H	0.249562	0.0156301	0.668467
0	H	0.908898	0.939156	0.783861
0	H	0.87771	0.944395	0.256411
0	H	0.253505	0.97097	0.168713
0	H	0.721908	0.532898	0.669464
0	H	0.401456	0.470795	0.781487
0	H	0.434532	0.437687	0.304011
0	H	0.763725	0.492945	0.194874
0	H	0.221097	0.53642	0.928439
0	H	0.900382	0.468309	0.650339
0	H	0.842432	0.473841	0.986629
0	H	0.313901	0.457391	0.361464
0	H	0.812518	0.0788154	0.834126
0	H	0.475177	0.994183	0.620113
0	H	0.35645	0.890304	0.147594
0	H	0.67385	0.970043	0.354158
0	H	0.100486	0.298675	0.463419
0	H	0.998267	0.298752	0.903914
0	H	0.00712743	0.609633	0.345506
0	H	0.155402	0.634339	0.0198805
0	H	0.611964	0.832143	0.485255
0	H	0.52221	0.813453	0.843334
0	H	0.537739	0.132702	0.484061
0	H	0.619964	0.165164	0.137963
0	H	0.42147	0.772514	0.964528
0	H	0.689134	0.822062	0.460969
0	H	0.70128	0.215089	0.993761
0	H	0.439906	0.147698	0.495915
0	H	0.940213	0.340862	0.978329
0	H	0.234412	0.21705	0.512593
0	H	0.218282	0.650403	0.00898478
0	H	0.967752	0.705617	0.452337
