#******************************************
#
# CIF file created by Zeo++
# Zeo++ is an open source package to
# analyze microporous materials
#
#*******************************************

_cell_length_a		19.2154(0)
_cell_length_b		17.967(0)
_cell_length_c		12.2261(0)
_cell_angle_alpha		90(0)
_cell_angle_beta		90(0)
_cell_angle_gamma		115.123(0)

_symmetry_space_group_name_H-M		'P1'
_symmetry_Int_Tables_number		1
_symmetry_cell_setting		Monoclinic

loop_
_symmetry_equiv_pos_as_xyz
'+x,+y,+z'

loop_
_atom_site_label
_atom_site_type_symbol
_atom_site_fract_x
_atom_site_fract_y
_atom_site_fract_z
0	O	0.198013	0.483064	0.831997
0	O	0.490535	0.809749	0.503618
0	O	0.158679	0.774954	0.171739
0	O	0.744525	0.572303	0.326923
0	O	0.45034	0.256577	0.0107924
0	O	0.781148	0.282231	0.672255
0	O	0.0785367	0.376692	0.853857
0	O	0.592315	0.775872	0.524736
0	O	0.205806	0.914284	0.196821
0	O	0.861767	0.682071	0.349343
0	O	0.342083	0.279615	0.0285921
0	O	0.733652	0.142912	0.698105
0	O	0.0359985	0.321109	0.0516838
0	O	0.642384	0.773823	0.721083
0	O	0.188946	0.967395	0.392014
0	O	0.901887	0.738464	0.548577
0	O	0.292954	0.284864	0.225732
0	O	0.745764	0.0898203	0.894591
0	O	0.166082	0.257115	0.116659
0	O	0.694011	0.957954	0.779442
0	O	0.0151125	0.86216	0.45307
0	O	0.766674	0.796316	0.607554
0	O	0.250852	0.0989149	0.277763
0	O	0.921628	0.195317	0.955831
0	H	0.222736	0.270881	0.117129
0	H	0.71356	0.0195467	0.784123
0	H	0.970807	0.806156	0.449361
0	H	0.710547	0.785004	0.610026
0	H	0.226821	0.0370232	0.282318
0	H	0.966437	0.251032	0.953958
0	O	0.99494	0.364273	0.476802
0	O	0.617919	0.690536	0.14585
0	O	0.265824	0.00166283	0.819677
0	O	0.942831	0.704256	0.976246
0	O	0.304691	0.35241	0.655804
0	O	0.670048	0.0551621	0.321469
0	O	0.172615	0.38418	0.429038
0	O	0.579116	0.859142	0.102642
0	O	0.116018	0.823516	0.772125
0	O	0.759818	0.672985	0.921967
0	O	0.351319	0.19604	0.606785
0	O	0.822054	0.233559	0.273871
0	O	0.154587	0.499566	0.404318
0	O	0.477755	0.735977	0.0780349
0	O	0.231266	0.821313	0.73994
0	O	0.785017	0.561518	0.903632
0	O	0.453276	0.318718	0.58354
0	O	0.707019	0.236936	0.244535
0	O	0.016542	0.47018	0.247684
0	O	0.513539	0.622376	0.92056
0	O	0.334436	0.963226	0.59034
0	O	0.922525	0.591291	0.748804
0	O	0.404089	0.434296	0.44025
0	O	0.601927	0.0974472	0.0938806
0	O	0.133988	0.5191	0.168334
0	O	0.462352	0.700508	0.837878
0	O	0.266708	0.843608	0.501577
0	O	0.805241	0.539201	0.668587
0	O	0.466154	0.372044	0.347781
0	O	0.671465	0.216988	0.0058522
0	N	0.159934	0.415386	0.998904
0	N	0.55115	0.822756	0.672165
0	N	0.149346	0.829198	0.340886
0	N	0.780436	0.639529	0.494267
0	N	0.387902	0.240719	0.178263
0	N	0.787598	0.228126	0.842792
0	C	0.222936	0.431641	0.167528
0	C	0.533692	0.871757	0.842953
0	C	0.102864	0.767137	0.510957
0	C	0.71476	0.622372	0.660628
0	C	0.405833	0.192568	0.349267
0	C	0.834196	0.290251	0.012807
0	C	0.286114	0.460172	0.236525
0	C	0.50406	0.910946	0.914219
0	C	0.0671315	0.701351	0.581318
0	C	0.650629	0.59174	0.727717
0	C	0.436026	0.153918	0.420541
0	C	0.870222	0.356069	0.0830228
0	H	0.281781	0.438773	0.320959
0	H	0.524816	0.925192	0.9983
0	H	0.0536383	0.710249	0.665756
0	H	0.652509	0.614965	0.81069
0	H	0.414075	0.137728	0.503793
0	H	0.883453	0.347102	0.167556
0	C	0.357589	0.516605	0.195996
0	C	0.446917	0.933985	0.876461
0	C	0.0467349	0.621141	0.542518
0	C	0.581646	0.530542	0.686924
0	C	0.495054	0.133562	0.383698
0	C	0.891216	0.436359	0.0440382
0	H	0.40727	0.538881	0.250398
0	H	0.423297	0.964769	0.932213
0	H	0.0188466	0.569566	0.598522
0	H	0.530835	0.506798	0.739352
0	H	0.518856	0.102959	0.43939
0	H	0.919551	0.487924	0.0999565
0	C	0.365443	0.542756	0.0875207
0	C	0.421138	0.919079	0.768643
0	C	0.0600688	0.607266	0.434029
0	C	0.57723	0.501365	0.580336
0	C	0.522153	0.150381	0.276628
0	C	0.877821	0.450222	0.935564
0	H	0.421627	0.586503	0.0570161
0	H	0.376285	0.937113	0.740767
0	H	0.0436548	0.544415	0.404649
0	H	0.52301	0.453541	0.550181
0	H	0.568412	0.134362	0.249376
0	H	0.894421	0.513046	0.905977
0	C	0.302447	0.513317	0.0156002
0	C	0.452233	0.881988	0.693952
0	C	0.0939959	0.672924	0.360464
0	C	0.64109	0.532755	0.510123
0	C	0.490377	0.186652	0.201822
0	C	0.843533	0.384487	0.862186
0	H	0.309124	0.532801	0.929657
0	H	0.432888	0.872005	0.608385
0	H	0.102355	0.661688	0.274264
0	H	0.637729	0.510277	0.426018
0	H	0.510421	0.197624	0.11665
0	H	0.83509	0.395729	0.776063
0	C	0.232173	0.457799	0.0563659
0	C	0.508595	0.859505	0.731983
0	C	0.115185	0.751918	0.399891
0	C	0.708493	0.593927	0.550716
0	C	0.432138	0.206483	0.238959
0	C	0.822145	0.305457	0.901604
0	C	0.149192	0.429261	0.886116
0	C	0.540628	0.80324	0.558204
0	C	0.170516	0.835108	0.227782
0	C	0.792131	0.627059	0.381346
0	C	0.397653	0.25885	0.0638428
0	C	0.768382	0.22215	0.728934
0	C	0.0562406	0.371697	0.732941
0	C	0.599607	0.761321	0.402823
0	C	0.222416	0.935019	0.0746262
0	C	0.883772	0.688662	0.228062
0	C	0.332928	0.290228	0.905987
0	C	0.717573	0.121707	0.576065
0	C	0.0601631	0.454828	0.700332
0	C	0.525315	0.690086	0.368221
0	C	0.281002	0.903577	0.0402959
0	C	0.88218	0.606822	0.193962
0	C	0.40369	0.3649	0.869298
0	C	0.65893	0.152776	0.540681
0	H	0.0232802	0.472986	0.752075
0	H	0.513676	0.634662	0.416861
0	H	0.333292	0.930379	0.0902228
0	H	0.92	0.58975	0.245293
0	H	0.411677	0.420016	0.916495
0	H	0.606438	0.125894	0.590176
0	H	0.0401048	0.452575	0.615225
0	H	0.529275	0.674313	0.281912
0	H	0.297986	0.921031	0.954462
0	H	0.902583	0.610663	0.108818
0	H	0.397469	0.378786	0.782865
0	H	0.642383	0.135041	0.454753
0	H	0.118849	0.503632	0.705507
0	H	0.475549	0.704475	0.377396
0	H	0.258189	0.836424	0.0467233
0	H	0.824169	0.556624	0.198849
0	H	0.456299	0.355673	0.877817
0	H	0.681444	0.219893	0.54709
0	C	0.974793	0.304998	0.739743
0	C	0.667433	0.739229	0.405436
0	C	0.255284	0.0278592	0.0785622
0	C	0.964282	0.757152	0.235167
0	C	0.260761	0.304628	0.907658
0	C	0.684761	0.0288589	0.580787
0	H	0.972396	0.244942	0.763344
0	H	0.72065	0.790038	0.434501
0	H	0.213374	0.0505628	0.106823
0	H	0.965035	0.816035	0.261116
0	H	0.209997	0.251056	0.93702
0	H	0.726715	0.00616706	0.608912
0	H	0.945616	0.298038	0.660363
0	H	0.678413	0.721809	0.323044
0	H	0.274567	0.0536156	0.99638
0	H	0.99297	0.766277	0.155051
0	H	0.248117	0.319928	0.82495
0	H	0.664963	0.00276442	0.49893
0	H	0.941013	0.320279	0.80091
0	H	0.65668	0.686867	0.459963
0	H	0.304965	0.0551073	0.133954
0	H	0.999368	0.742398	0.294711
0	H	0.267522	0.356197	0.961487
0	H	0.63532	0.00213273	0.636604
0	C	0.110633	0.346231	0.67015
0	C	0.616555	0.841602	0.344389
0	C	0.146635	0.895535	0.0140737
0	C	0.827545	0.712229	0.166742
0	C	0.321974	0.210512	0.850648
0	C	0.793598	0.161091	0.516063
0	H	0.170684	0.392112	0.676008
0	H	0.568048	0.85875	0.348469
0	H	0.121493	0.828051	0.0171835
0	H	0.768197	0.664678	0.172037
0	H	0.37404	0.199555	0.85404
0	H	0.818886	0.22859	0.51944
0	H	0.0952764	0.338669	0.582512
0	H	0.628427	0.836898	0.257111
0	H	0.155185	0.912915	0.926674
0	H	0.842975	0.721312	0.079135
0	H	0.307628	0.211891	0.763563
0	H	0.785363	0.143767	0.428679
0	H	0.108393	0.287665	0.699776
0	H	0.666727	0.892691	0.379449
0	H	0.103814	0.915035	0.0464997
0	H	0.827721	0.769496	0.197935
0	H	0.275271	0.157082	0.888137
0	H	0.836053	0.141295	0.549114
0	C	0.102904	0.361191	0.073071
0	C	0.603649	0.809511	0.744792
0	C	0.15917	0.895241	0.41436
0	C	0.83521	0.696234	0.56876
0	C	0.333145	0.250875	0.249576
0	C	0.776732	0.161981	0.916662
0	C	0.141283	0.368598	0.187347
0	C	0.596279	0.842537	0.860399
0	C	0.128694	0.858391	0.529361
0	C	0.794973	0.688269	0.681671
0	C	0.339981	0.21712	0.364675
0	C	0.807654	0.198914	0.0314876
0	C	0.143382	0.284097	0.214539
0	C	0.673166	0.91975	0.884681
0	C	0.0559927	0.8746	0.554141
0	C	0.790205	0.771711	0.706653
0	C	0.265417	0.135992	0.384045
0	C	0.879959	0.181985	0.0562923
0	H	0.186107	0.293878	0.281479
0	H	0.661927	0.960855	0.943646
0	H	0.0201219	0.830041	0.617582
0	H	0.747026	0.761461	0.772971
0	H	0.277863	0.0964094	0.444224
0	H	0.915608	0.225789	0.12058
0	C	0.0642438	0.216283	0.242395
0	C	0.740378	0.901896	0.923145
0	C	0.0754854	0.963699	0.585733
0	C	0.868383	0.841403	0.734418
0	C	0.193998	0.147563	0.418093
0	C	0.859551	0.0924113	0.0864197
0	H	0.0282166	0.199105	0.167252
0	H	0.765892	0.884922	0.851049
0	H	0.0977084	0.00409528	0.512104
0	H	0.90498	0.85857	0.659808
0	H	0.170203	0.165809	0.345327
0	H	0.837347	0.0526759	0.0123619
0	H	0.0707664	0.159935	0.265937
0	H	0.786777	0.960306	0.954351
0	H	0.0219389	0.968962	0.608536
0	H	0.860116	0.89714	0.755887
0	H	0.148353	0.0865082	0.44337
0	H	0.912786	0.0864204	0.109169
0	C	0.026259	0.243785	0.333579
0	C	0.716359	0.835229	0.0105826
0	C	0.134047	0.992212	0.678502
0	C	0.906851	0.816361	0.8275
0	C	0.211653	0.209989	0.510286
0	C	0.800743	0.063619	0.178894
0	H	0.0608206	0.25604	0.409922
0	H	0.700287	0.856986	0.0874606
0	H	0.110916	0.954013	0.752918
0	H	0.871718	0.804019	0.903266
0	H	0.227653	0.187003	0.586263
0	H	0.824178	0.1009	0.25392
0	H	0.969195	0.193889	0.353349
0	H	0.76552	0.82082	0.0314621
0	H	0.146204	0.0560399	0.702655
0	H	0.963122	0.867505	0.847474
0	H	0.159739	0.219478	0.530664
0	H	0.787683	0.999278	0.201495
0	C	0.0170975	0.321244	0.298345
0	C	0.648957	0.757074	0.969429
0	C	0.208217	0.987345	0.641204
0	C	0.918394	0.739794	0.794728
0	C	0.276821	0.292067	0.475694
0	C	0.727075	0.0700312	0.14255
0	H	0.982796	0.306277	0.219564
0	H	0.667319	0.739254	0.889207
0	H	0.227908	0.0238845	0.562704
0	H	0.953164	0.754968	0.716311
0	H	0.258753	0.311441	0.396323
0	H	0.706849	0.0341119	0.0636845
0	C	0.0957025	0.394465	0.273057
0	C	0.576435	0.771901	0.945283
0	C	0.194969	0.897697	0.613929
0	C	0.840961	0.664894	0.769735
0	C	0.353236	0.28466	0.45216
0	C	0.741561	0.160216	0.11652
0	C	0.970529	0.341666	0.38555
0	C	0.633366	0.686659	0.0505692
0	C	0.271581	0.0274733	0.726948
0	C	0.965645	0.721705	0.883218
0	C	0.286569	0.357658	0.56219
0	C	0.663768	0.029867	0.228428
0	H	0.912265	0.332169	0.359956
0	H	0.639479	0.633085	0.0160463
0	H	0.32191	0.0823359	0.698314
0	H	0.0226808	0.727717	0.856546
0	H	0.273795	0.408645	0.533258
0	H	0.613136	0.97544	0.199509
0	C	0.144704	0.422427	0.377419
0	C	0.547377	0.79634	0.0504368
0	C	0.17395	0.844282	0.717738
0	C	0.791108	0.63678	0.873377
0	C	0.383007	0.259661	0.55609
0	C	0.763667	0.213363	0.220619
0	C	0.204763	0.542047	0.496977
0	C	0.433741	0.749706	0.168357
0	C	0.221639	0.761083	0.827024
0	C	0.733092	0.51733	0.993843
0	C	0.496652	0.302861	0.673236
0	C	0.717876	0.297737	0.331532
0	H	0.177336	0.582148	0.523871
0	H	0.409725	0.688746	0.208694
0	H	0.282192	0.781278	0.852918
0	H	0.763675	0.482194	0.0274328
0	H	0.514643	0.359738	0.722373
0	H	0.658739	0.274376	0.364783
0	H	0.199751	0.496318	0.560449
0	H	0.473503	0.797661	0.22348
0	H	0.186622	0.76938	0.893402
0	H	0.731492	0.56244	0.0539635
0	H	0.457817	0.248959	0.720936
0	H	0.758257	0.294028	0.39313
0	C	0.285566	0.589262	0.454491
0	C	0.372975	0.77127	0.117573
0	C	0.187055	0.676435	0.776169
0	C	0.65568	0.463329	0.94516
0	C	0.563292	0.292362	0.621378
0	C	0.744351	0.380838	0.277405
0	H	0.315077	0.549547	0.439666
0	H	0.398133	0.830498	0.0744662
0	H	0.123975	0.649566	0.774573
0	H	0.623338	0.498326	0.92034
0	H	0.544343	0.236187	0.571753
0	H	0.806142	0.408638	0.259284
0	H	0.32087	0.637255	0.512356
0	H	0.333164	0.774885	0.17956
0	H	0.204017	0.63321	0.820077
0	H	0.619813	0.41601	0.00338953
0	H	0.603307	0.289454	0.683602
0	H	0.732634	0.42474	0.328562
0	H	0.285494	0.619622	0.376386
0	H	0.338761	0.724822	0.0570872
0	H	0.206219	0.678643	0.690905
0	H	0.662134	0.431598	0.871511
0	H	0.596059	0.344117	0.566647
0	H	0.714208	0.376053	0.199336
0	C	0.0764522	0.464898	0.23004
0	C	0.514429	0.689054	0.901625
0	C	0.273616	0.90581	0.569256
0	C	0.86212	0.595009	0.729634
0	C	0.41006	0.371867	0.414454
0	C	0.663332	0.153912	0.0727436
0	C	0.123571	0.587137	0.114118
0	C	0.401335	0.629595	0.783083
0	C	0.33599	0.847527	0.444397
0	C	0.816687	0.47107	0.616528
0	C	0.519626	0.451398	0.298724
0	C	0.602686	0.215581	0.950147
0	H	0.184112	0.633007	0.108006
0	H	0.362858	0.65826	0.758563
0	H	0.312229	0.785268	0.408198
0	H	0.756451	0.424187	0.611834
0	H	0.57641	0.458588	0.330232
0	H	0.626959	0.278872	0.917229
0	H	0.0912111	0.609885	0.169982
0	H	0.373154	0.580858	0.845177
0	H	0.380311	0.854402	0.507216
0	H	0.850225	0.450298	0.672969
0	H	0.506027	0.501538	0.329565
0	H	0.558312	0.20731	0.0135054
0	C	0.0848968	0.558295	0.00493468
0	C	0.43377	0.601039	0.688123
0	C	0.362707	0.916062	0.361315
0	C	0.854325	0.498508	0.506437
0	C	0.511422	0.440372	0.176413
0	C	0.575552	0.149552	0.863549
0	H	0.124968	0.556276	0.942212
0	H	0.457077	0.647632	0.623691
0	H	0.315146	0.917658	0.312856
0	H	0.813178	0.497134	0.443199
0	H	0.522627	0.388251	0.14874
0	H	0.62203	0.152702	0.808721
0	H	0.0595414	0.59894	0.974774
0	H	0.38975	0.545247	0.650615
0	H	0.404272	0.910615	0.304037
0	H	0.88168	0.459135	0.478517
0	H	0.552139	0.495755	0.134066
0	H	0.529948	0.153483	0.813156
0	H	0.0378641	0.496022	0.00969486
0	H	0.480806	0.585276	0.714072
0	H	0.391395	0.976855	0.400617
0	H	0.89975	0.561788	0.508723
0	H	0.45337	0.429061	0.14814
0	H	0.551432	0.087513	0.899947
