#******************************************
#
# CIF file created by Zeo++
# Zeo++ is an open source package to
# analyze microporous materials
#
#*******************************************

_cell_length_a		28.055(0)
_cell_length_b		7.70667(0)
_cell_length_c		12.2982(0)
_cell_angle_alpha		90(0)
_cell_angle_beta		90(0)
_cell_angle_gamma		90(0)

_symmetry_space_group_name_H-M		'P1'
_symmetry_Int_Tables_number		1
_symmetry_cell_setting		Monoclinic

loop_
_symmetry_equiv_pos_as_xyz
'+x,+y,+z'

loop_
_atom_site_label
_atom_site_type_symbol
_atom_site_fract_x
_atom_site_fract_y
_atom_site_fract_z
0	N	0.932731	0.364916	0.241907
0	N	0.0649763	0.634543	0.241937
0	N	0.564958	0.864213	0.762256
0	N	0.432749	0.134965	0.762284
0	O	0.929625	0.454106	0.755179
0	O	0.0681931	0.545738	0.75522
0	O	0.567481	0.953257	0.248943
0	O	0.430238	0.0457433	0.249019
0	O	0.884004	0.596299	0.908371
0	O	0.113828	0.403584	0.908413
0	O	0.612721	0.0974115	0.0956928
0	O	0.38503	0.901548	0.0957759
0	H	0.912759	0.521998	0.87067
0	H	0.0850908	0.47794	0.870754
0	H	0.584117	0.0224547	0.133307
0	H	0.413632	0.976504	0.133447
0	O	0.145344	0.057163	0.264031
0	O	0.852367	0.9421	0.263975
0	O	0.352559	0.554458	0.740846
0	O	0.645187	0.444536	0.740813
0	O	0.201378	0.92561	0.406069
0	O	0.796283	0.0736122	0.405796
0	O	0.29642	0.424089	0.598406
0	O	0.701316	0.574919	0.598259
0	H	0.191065	0.973095	0.327319
0	H	0.806641	0.0261241	0.327083
0	H	0.30677	0.470995	0.67725
0	H	0.691015	0.527912	0.67709
0	C	0.917288	0.40374	0.348523
0	C	0.0804101	0.595619	0.34855
0	C	0.580223	0.903721	0.655601
0	C	0.417485	0.0954547	0.655632
0	C	0.875183	0.484096	0.38405
0	C	0.122511	0.515221	0.384082
0	C	0.622066	0.985681	0.619885
0	C	0.375637	0.0135017	0.619944
0	H	0.847262	0.520548	0.327217
0	H	0.150435	0.478757	0.327262
0	H	0.649925	0.0233102	0.676579
0	H	0.347784	0.975883	0.676641
0	C	0.870724	0.517957	0.494457
0	C	0.126968	0.481308	0.494476
0	C	0.62634	0.0196871	0.509461
0	C	0.371361	0.979462	0.509525
0	H	0.838304	0.58129	0.524167
0	H	0.159384	0.417952	0.524179
0	H	0.658492	0.0846224	0.479594
0	H	0.339212	0.914489	0.479687
0	C	0.906796	0.473264	0.569858
0	C	0.0908814	0.525955	0.569863
0	C	0.590341	0.973478	0.434239
0	C	0.40734	0.0256925	0.434269
0	C	0.948058	0.38622	0.534852
0	C	0.0496184	0.612909	0.534876
0	C	0.549329	0.885153	0.469387
0	C	0.448358	0.11409	0.469401
0	H	0.975371	0.349226	0.59399
0	H	0.0222842	0.649798	0.593999
0	H	0.522074	0.847126	0.410364
0	H	0.475593	0.152139	0.410344
0	C	0.953648	0.351056	0.424674
0	C	0.0440383	0.648185	0.424705
0	C	0.543907	0.85009	0.579617
0	C	0.453794	0.149133	0.579627
0	C	0.99183	0.274203	0.361061
0	C	0.0058547	0.725019	0.3611
0	C	0.505884	0.772597	0.64337
0	C	0.491817	0.22664	0.643393
0	C	0.0355009	0.201933	0.388836
0	C	0.962181	0.797261	0.388886
0	C	0.46226	0.699888	0.615762
0	C	0.535445	0.299341	0.615808
0	H	0.0460057	0.193322	0.474225
0	H	0.951676	0.805816	0.474273
0	H	0.451718	0.691016	0.530408
0	H	0.54599	0.308239	0.530455
0	C	0.0660286	0.143602	0.305967
0	C	0.931656	0.855645	0.306034
0	C	0.431814	0.641361	0.698726
0	C	0.565896	0.357822	0.698793
0	C	0.052486	0.159424	0.195643
0	C	0.945203	0.83986	0.195703
0	C	0.445451	0.657095	0.808998
0	C	0.552254	0.342078	0.809047
0	H	0.07742	0.114685	0.133244
0	H	0.920265	0.884607	0.133314
0	H	0.420614	0.611912	0.871468
0	H	0.577082	0.387225	0.871548
0	C	0.00878487	0.229473	0.165225
0	C	0.988896	0.769783	0.165257
0	C	0.489124	0.727566	0.839269
0	C	0.508573	0.271649	0.83929
0	H	0.998591	0.239358	0.0802173
0	H	0.999082	0.759878	0.0802531
0	H	0.499413	0.737363	0.924206
0	H	0.498274	0.26187	0.924223
0	C	0.978203	0.286514	0.248152
0	C	0.0194823	0.712753	0.248191
0	C	0.519576	0.78512	0.756207
0	C	0.478126	0.214103	0.756229
0	C	0.906238	0.405159	0.140933
0	C	0.0914253	0.594064	0.140939
0	C	0.591316	0.904949	0.863342
0	C	0.40639	0.0941839	0.863357
0	H	0.931	0.468684	0.082017
0	H	0.0666296	0.530527	0.0821134
0	H	0.566467	0.969087	0.921806
0	H	0.431247	0.0301562	0.921856
0	H	0.878273	0.503645	0.159842
0	H	0.119374	0.495511	0.159855
0	H	0.619392	0.00300729	0.844484
0	H	0.37835	0.996006	0.8445
0	C	0.884015	0.243171	0.0911663
0	C	0.113659	0.755939	0.0910385
0	C	0.613256	0.742944	0.91374
0	C	0.384387	0.256103	0.913721
0	H	0.860121	0.278089	0.0239278
0	H	0.137536	0.720854	0.0238018
0	H	0.637007	0.777855	0.981235
0	H	0.360616	0.221105	0.981157
0	H	0.863039	0.168484	0.150854
0	H	0.134646	0.830718	0.150668
0	H	0.634316	0.667686	0.854466
0	H	0.36333	0.33128	0.854402
0	H	0.911065	0.154222	0.0589635
0	H	0.0866024	0.844822	0.0587908
0	H	0.586034	0.654483	0.945735
0	H	0.411571	0.344661	0.945785
0	C	0.901484	0.516054	0.686493
0	C	0.0962104	0.483182	0.686518
0	C	0.595441	0.0163421	0.317558
0	C	0.402237	0.982802	0.317601
0	C	0.863446	0.6294	0.722409
0	C	0.134136	0.369298	0.722356
0	C	0.633138	0.131229	0.2817
0	C	0.364513	0.868058	0.281716
0	H	0.840658	0.688271	0.661015
0	H	0.156769	0.309743	0.660941
0	H	0.655685	0.19117	0.343149
0	H	0.341918	0.808337	0.343164
0	C	0.855372	0.660582	0.830348
0	C	0.142313	0.338547	0.830307
0	C	0.641233	0.16238	0.173765
0	C	0.356465	0.836803	0.173797
0	C	0.815063	0.763021	0.873471
0	C	0.182601	0.236023	0.873419
0	C	0.681468	0.265052	0.130627
0	C	0.316211	0.734098	0.130603
0	C	0.81877	0.849603	0.973678
0	C	0.178901	0.149563	0.97368
0	C	0.677773	0.351348	0.030344
0	C	0.319949	0.647838	0.0303371
0	H	0.851538	0.839408	0.0213194
0	H	0.146148	0.159891	0.021358
0	H	0.64496	0.341491	0.982853
0	H	0.352779	0.657647	0.982899
0	C	0.780511	0.947829	0.0123367
0	C	0.217151	0.0512963	0.0123207
0	C	0.716106	0.448924	0.99141
0	C	0.281625	0.550321	0.991319
0	H	0.783596	0.0155609	0.0899936
0	H	0.214079	0.983601	0.0899869
0	H	0.713034	0.51629	0.913623
0	H	0.284719	0.482981	0.913528
0	C	0.738472	0.959542	0.951635
0	C	0.259181	0.0394831	0.951542
0	C	0.758204	0.460271	0.0519412
0	C	0.239494	0.53908	0.0517515
0	H	0.708745	0.0379014	0.981303
0	H	0.288902	0.961102	0.981233
0	H	0.788029	0.537815	0.0219703
0	H	0.209667	0.46163	0.0216684
0	C	0.734464	0.871937	0.852434
0	C	0.263175	0.126913	0.852314
0	C	0.762172	0.373245	0.151347
0	C	0.235508	0.626074	0.151148
0	H	0.701677	0.880883	0.805204
0	H	0.295947	0.117877	0.805023
0	H	0.794969	0.38213	0.198535
0	H	0.202681	0.617221	0.198253
0	C	0.772588	0.77389	0.813153
0	C	0.225035	0.224886	0.813013
0	C	0.723965	0.275908	0.190916
0	C	0.273695	0.723303	0.190795
0	H	0.769303	0.706156	0.735414
0	H	0.228303	0.292485	0.735209
0	H	0.727211	0.208684	0.26882
0	H	0.270443	0.790477	0.268742
0	C	0.112813	0.0664461	0.333639
0	C	0.884868	0.93276	0.333675
0	C	0.385026	0.564356	0.671098
0	C	0.612697	0.434794	0.671148
0	C	0.121026	0.00173789	0.442191
0	C	0.876595	0.99742	0.442212
0	C	0.376714	0.500755	0.562337
0	C	0.620977	0.498492	0.562389
0	H	0.0910492	0.00198967	0.498587
0	H	0.906539	0.997116	0.498719
0	H	0.406665	0.501666	0.505821
0	H	0.591002	0.497729	0.505955
0	C	0.16396	0.935271	0.474913
0	C	0.833642	0.063901	0.474777
0	C	0.333788	0.434472	0.529496
0	C	0.663902	0.564684	0.529449
0	C	0.174711	0.870676	0.585124
0	C	0.822811	0.128522	0.584964
0	C	0.323112	0.370744	0.419041
0	C	0.674549	0.628412	0.419003
0	C	0.216214	0.773473	0.605129
0	C	0.781314	0.225756	0.604802
0	C	0.281813	0.272805	0.398555
0	C	0.715857	0.726284	0.398422
0	H	0.240734	0.746065	0.538315
0	H	0.75684	0.253247	0.53791
0	H	0.25722	0.244324	0.465054
0	H	0.740471	0.754742	0.464893
0	C	0.22582	0.712023	0.709658
0	C	0.77163	0.287224	0.709308
0	C	0.272453	0.211793	0.293777
0	C	0.725192	0.787258	0.293623
0	H	0.258274	0.637538	0.724804
0	H	0.739165	0.361774	0.724302
0	H	0.240146	0.136654	0.278276
0	H	0.757501	0.862369	0.27806
0	C	0.193995	0.745947	0.794646
0	C	0.803355	0.253174	0.794423
0	C	0.304275	0.246977	0.209051
0	C	0.693337	0.752144	0.20896
0	H	0.201582	0.69816	0.876332
0	H	0.795718	0.300942	0.876111
0	H	0.296872	0.19956	0.127196
0	H	0.700716	0.799537	0.127108
0	C	0.152532	0.84182	0.775172
0	C	0.844815	0.157164	0.775121
0	C	0.345529	0.343859	0.228998
0	C	0.652072	0.655369	0.228983
0	H	0.127469	0.867333	0.841009
0	H	0.869793	0.131478	0.841106
0	H	0.370569	0.370547	0.163273
0	H	0.626994	0.62876	0.163339
0	C	0.142946	0.904748	0.671038
0	C	0.854483	0.0942548	0.67104
0	C	0.354867	0.406403	0.333316
0	C	0.642758	0.592826	0.333336
0	H	0.110608	0.980323	0.656634
0	H	0.886801	0.0184774	0.656787
0	H	0.387011	0.482953	0.348034
0	H	0.610611	0.516329	0.348083
