#******************************************
#
# CIF file created by Zeo++
# Zeo++ is an open source package to
# analyze microporous materials
#
#*******************************************

_cell_length_a		13.8532(0)
_cell_length_b		13.8259(0)
_cell_length_c		7.91782(0)
_cell_angle_alpha		90(0)
_cell_angle_beta		90(0)
_cell_angle_gamma		119.826(0)

_symmetry_space_group_name_H-M		'P1'
_symmetry_Int_Tables_number		1
_symmetry_cell_setting		Monoclinic

loop_
_symmetry_equiv_pos_as_xyz
'+x,+y,+z'

loop_
_atom_site_label
_atom_site_type_symbol
_atom_site_fract_x
_atom_site_fract_y
_atom_site_fract_z
0	S	0.889868	0.534803	0.882308
0	S	0.462982	0.357375	0.882072
0	S	0.640778	0.106764	0.882181
0	S	0.104995	0.463791	0.105145
0	S	0.531849	0.641192	0.105378
0	S	0.354062	0.891768	0.105341
0	C	0.71642	0.483398	0.660868
0	C	0.514321	0.234879	0.660538
0	C	0.762568	0.280287	0.660415
0	C	0.278426	0.515168	0.326597
0	C	0.480496	0.763669	0.32686
0	C	0.23221	0.718254	0.326974
0	C	0.805888	0.567508	0.751401
0	C	0.430333	0.240635	0.751311
0	C	0.757047	0.190425	0.751054
0	C	0.188945	0.431043	0.236039
0	C	0.564438	0.757912	0.236151
0	C	0.237739	0.80812	0.236431
0	C	0.837873	0.680132	0.734146
0	C	0.31799	0.160495	0.734386
0	C	0.837262	0.157946	0.733961
0	C	0.156964	0.318463	0.253228
0	C	0.676815	0.838034	0.253087
0	C	0.157546	0.840611	0.253472
0	C	0.777399	0.710204	0.626106
0	C	0.288057	0.0700356	0.626135
0	C	0.927628	0.218366	0.625927
0	C	0.217456	0.288352	0.361339
0	C	0.706774	0.928501	0.361293
0	C	0.0671437	0.780219	0.361423
0	C	0.68758	0.627993	0.534961
0	C	0.370133	0.0620861	0.534669
0	C	0.935414	0.308601	0.534813
0	C	0.307243	0.370515	0.452424
0	C	0.624647	0.936449	0.452789
0	C	0.0593332	0.689967	0.452409
0	C	0.658053	0.5157	0.550819
0	C	0.482146	0.144411	0.550274
0	C	0.8529	0.33847	0.55048
0	C	0.336786	0.482875	0.436612
0	C	0.512694	0.854175	0.437201
0	C	0.141762	0.65997	0.436733
0	C	0.856762	0.549567	0.102759
0	C	0.448247	0.309566	0.102515
0	C	0.688775	0.140057	0.1025
0	C	0.138055	0.448987	0.884684
0	C	0.54659	0.688998	0.884915
0	C	0.306069	0.858495	0.885033
0	C	0.758867	0.439729	0.148395
0	C	0.557961	0.32104	0.148342
0	C	0.676905	0.238347	0.148305
0	C	0.235979	0.558826	0.839043
0	C	0.436881	0.677536	0.839126
0	C	0.3179	0.760184	0.839188
0	C	0.771295	0.344688	0.154381
0	C	0.652581	0.428172	0.154401
0	C	0.56982	0.226233	0.154472
0	C	0.223519	0.653859	0.833056
0	C	0.342252	0.570389	0.83306
0	C	0.42499	0.772316	0.833005
0	H	0.908973	0.743957	0.803642
0	H	0.254207	0.168006	0.80404
0	H	0.829952	0.0866477	0.803563
0	H	0.0858662	0.254622	0.183751
0	H	0.740571	0.830519	0.183383
0	H	0.164882	0.911918	0.183805
0	H	0.800009	0.797364	0.613008
0	H	0.201143	0.00583438	0.613203
0	H	0.991912	0.195436	0.613191
0	H	0.194798	0.201178	0.374364
0	H	0.793684	0.992698	0.374306
0	H	0.00287159	0.803187	0.374193
0	H	0.640002	0.651522	0.451353
0	H	0.346534	0.991053	0.450989
0	H	0.00634744	0.356143	0.451524
0	H	0.354839	0.347009	0.536045
0	H	0.648294	0.00751897	0.536442
0	H	0.98832	0.642372	0.53562
0	H	0.58818	0.453375	0.476427
0	H	0.544441	0.136752	0.475532
0	H	0.860506	0.408711	0.476318
0	H	0.406649	0.545155	0.511027
0	H	0.450367	0.861827	0.511898
0	H	0.133949	0.589578	0.5107
0	H	0.932622	0.570241	0.177195
0	H	0.427332	0.364837	0.176828
0	H	0.633821	0.0641086	0.177053
0	H	0.0622073	0.428358	0.810281
0	H	0.567451	0.633688	0.810593
0	H	0.361033	0.934425	0.810459
0	H	0.841529	0.620306	0.116681
0	H	0.377744	0.223825	0.116293
0	H	0.774402	0.155048	0.116158
0	H	0.153239	0.378224	0.870746
0	H	0.617106	0.774719	0.871108
0	H	0.220462	0.843547	0.871388
0	H	0.854237	0.354129	0.149942
0	H	0.642817	0.501685	0.149968
0	H	0.496587	0.143247	0.150168
0	H	0.140569	0.644396	0.837473
0	H	0.352015	0.496875	0.837509
0	H	0.498224	0.85532	0.837315
0	Si	0.664466	0.332841	0.718712
0	Si	0.330331	0.665708	0.268762
0	H	0.66457	0.332746	0.901323
0	H	0.330217	0.665804	0.0861463
