#******************************************
#
# CIF file created by Zeo++
# Zeo++ is an open source package to
# analyze microporous materials
#
#*******************************************

_cell_length_a		19.9358(0)
_cell_length_b		19.8624(0)
_cell_length_c		8.9091(0)
_cell_angle_alpha		90(0)
_cell_angle_beta		90(0)
_cell_angle_gamma		119.06(0)

_symmetry_space_group_name_H-M		'P1'
_symmetry_Int_Tables_number		1
_symmetry_cell_setting		Monoclinic

loop_
_symmetry_equiv_pos_as_xyz
'+x,+y,+z'

loop_
_atom_site_label
_atom_site_type_symbol
_atom_site_fract_x
_atom_site_fract_y
_atom_site_fract_z
0	O	0.521788	0.508826	0.282681
0	O	0.483557	0.0199768	0.614041
0	O	0.974518	0.47152	0.951499
0	O	0.464653	0.491022	0.782614
0	O	0.502432	0.979635	0.112123
0	O	0.0128361	0.52895	0.448722
0	C	0.452323	0.512497	0.330805
0	C	0.478451	0.945878	0.661194
0	C	0.0462908	0.540988	0.998002
0	C	0.534319	0.487506	0.829926
0	C	0.508009	0.0536999	0.161079
0	C	0.940886	0.459938	0.496253
0	N	0.38153	0.440738	0.298094
0	N	0.549022	0.943147	0.625528
0	N	0.0446606	0.612369	0.962566
0	N	0.604899	0.558942	0.794492
0	N	0.437336	0.056806	0.128424
0	N	0.942434	0.388273	0.463471
0	C	0.365683	0.424598	0.134588
0	C	0.563728	0.943047	0.461368
0	C	0.0448761	0.627587	0.798451
0	C	0.61938	0.573936	0.630396
0	C	0.42146	0.0578008	0.964986
0	C	0.942455	0.371977	0.299972
0	C	0.380603	0.37366	0.379343
0	C	0.617058	0.00647809	0.705687
0	C	0.979213	0.614913	0.0423248
0	C	0.606385	0.626456	0.874932
0	C	0.369476	0.993155	0.208441
0	C	0.00768665	0.386055	0.544831
0	C	0.359255	0.374605	0.544267
0	C	0.616327	0.984088	0.870506
0	C	0.000845907	0.636855	0.207178
0	C	0.627832	0.625792	0.0398775
0	C	0.370095	0.0148254	0.373727
0	C	0.985454	0.364587	0.709627
0	S	0.258528	0.34876	0.54888
0	S	0.644669	0.910013	0.875131
0	S	0.0748424	0.737215	0.210331
0	S	0.728204	0.650392	0.0436774
0	S	0.341668	0.0888343	0.379899
0	S	0.91196	0.264022	0.713355
0	C	0.220718	0.293651	0.713078
0	C	0.699178	0.927009	0.0402838
0	C	0.059099	0.776597	0.375126
0	C	0.766302	0.705136	0.20811
0	C	0.286855	0.0715459	0.544735
0	C	0.928318	0.224692	0.877558
0	C	0.265639	0.288775	0.828086
0	C	0.70224	0.976526	0.154326
0	C	0.0101166	0.732773	0.490703
0	C	0.721312	0.709439	0.323637
0	C	0.283782	0.0224096	0.659533
0	C	0.97752	0.268461	0.992935
0	C	0.229412	0.243578	0.954234
0	C	0.746186	0.984639	0.282472
0	C	0.00291801	0.770471	0.617468
0	C	0.757477	0.753948	0.450542
0	C	0.239918	0.0148227	0.787568
0	C	0.985024	0.23065	0.119228
0	C	0.149406	0.204505	0.965282
0	C	0.78593	0.943239	0.296281
0	C	0.0449453	0.85069	0.628718
0	C	0.837475	0.792808	0.461829
0	C	0.200018	0.056152	0.800255
0	C	0.943134	0.150418	0.130156
0	C	0.105037	0.210271	0.849374
0	C	0.782332	0.893748	0.180863
0	C	0.0942968	0.893918	0.512284
0	C	0.881911	0.787785	0.345183
0	C	0.203428	0.105043	0.683804
0	C	0.893658	0.107223	0.0138736
0	C	0.140446	0.254802	0.722547
0	C	0.739046	0.88543	0.0520667
0	C	0.101315	0.857086	0.384492
0	C	0.846556	0.744036	0.217486
0	C	0.24678	0.112976	0.555345
0	C	0.886318	0.144173	0.886569
0	C	0.523127	0.442403	0.320639
0	C	0.550693	0.0851276	0.65137
0	C	0.907482	0.471449	0.988272
0	C	0.463534	0.557631	0.820117
0	C	0.435392	0.914497	0.149799
0	C	0.0796964	0.529183	0.487729
0	C	0.594935	0.445976	0.30647
0	C	0.548655	0.154625	0.639915
0	C	0.840692	0.399671	0.97662
0	C	0.391685	0.554093	0.808096
0	C	0.437144	0.844898	0.136383
0	C	0.146592	0.600847	0.475208
0	C	0.600959	0.381148	0.344928
0	C	0.61437	0.222838	0.677948
0	C	0.770644	0.394973	0.0135458
0	C	0.386115	0.619217	0.846274
0	C	0.371525	0.776626	0.174444
0	C	0.216475	0.605751	0.514386
0	C	0.536372	0.313805	0.394154
0	C	0.681215	0.221848	0.723407
0	C	0.76729	0.460881	0.0588864
0	C	0.451164	0.686822	0.892911
0	C	0.304921	0.77762	0.221742
0	C	0.219589	0.540116	0.562533
0	C	0.465183	0.310954	0.404956
0	C	0.682649	0.15234	0.731088
0	C	0.834184	0.531988	0.067532
0	C	0.522404	0.689658	0.901589
0	C	0.303726	0.847155	0.231347
0	C	0.152638	0.469098	0.571804
0	C	0.457331	0.375427	0.368781
0	C	0.617114	0.0826568	0.696186
0	C	0.905673	0.538484	0.0329591
0	C	0.529753	0.624876	0.865669
0	C	0.369272	0.916951	0.196821
0	C	0.0812822	0.462427	0.535189
0	C	0.460651	0.583024	0.243178
0	C	0.406937	0.886088	0.575714
0	C	0.108047	0.531079	0.911928
0	C	0.525381	0.416264	0.744277
0	C	0.579168	0.113639	0.0746661
0	C	0.879387	0.469654	0.408695
0	O	0.529987	0.648212	0.296872
0	O	0.342379	0.89157	0.634446
0	O	0.104669	0.461198	0.96668
0	O	0.456503	0.351791	0.801519
0	O	0.644338	0.108353	0.13047
0	O	0.882578	0.539607	0.462375
0	C	0.513819	0.705916	0.362853
0	C	0.284357	0.818046	0.695503
0	C	0.177738	0.476399	0.0318806
0	C	0.472681	0.293596	0.864943
0	C	0.70182	0.181403	0.194457
0	C	0.8098	0.524333	0.529056
0	C	0.525573	0.70754	0.530899
0	C	0.279128	0.826704	0.863177
0	C	0.167905	0.46346	0.199657
0	C	0.460599	0.290552	0.0330047
0	C	0.704875	0.171795	0.36243
0	C	0.820536	0.538192	0.696507
0	C	0.56223	0.780946	0.280888
0	C	0.210662	0.793033	0.608883
0	C	0.205123	0.427911	0.948369
0	C	0.424381	0.219328	0.780468
0	C	0.7765	0.206572	0.111472
0	C	0.781607	0.57215	0.445578
0	O	0.433754	0.680229	0.330437
0	O	0.311977	0.764055	0.665916
0	O	0.230426	0.55683	0.0014361
0	O	0.552863	0.319664	0.83296
0	O	0.674923	0.235775	0.162838
0	O	0.757268	0.443645	0.500665
0	C	0.395944	0.602148	0.274703
0	C	0.388433	0.802433	0.603448
0	C	0.190286	0.59533	0.943561
0	C	0.590251	0.397298	0.774852
0	C	0.597794	0.197257	0.1037
0	C	0.797019	0.405475	0.439458
0	H	0.459075	0.523454	0.454693
0	H	0.468599	0.94229	0.785349
0	H	0.0505719	0.535147	0.122167
0	H	0.528384	0.477517	0.954132
0	H	0.518629	0.0568594	0.28503
0	H	0.9365	0.466656	0.620113
0	H	0.351697	0.467193	0.0841247
0	H	0.521997	0.886752	0.412595
0	H	0.100754	0.640144	0.749569
0	H	0.633019	0.531013	0.580362
0	H	0.464934	0.112762	0.914642
0	H	0.886916	0.359739	0.24991
0	H	0.413245	0.425162	0.0701842
0	H	0.56071	0.989118	0.397456
0	H	0.998963	0.580021	0.73433
0	H	0.57125	0.572789	0.567104
0	H	0.420372	0.00992697	0.900195
0	H	0.988844	0.418862	0.235372
0	H	0.314277	0.367865	0.119187
0	H	0.620995	0.948765	0.442918
0	H	0.0395106	0.679738	0.780839
0	H	0.670558	0.630605	0.612843
0	H	0.365607	0.0559288	0.950041
0	H	0.947208	0.319345	0.284566
0	H	0.335736	0.319239	0.324408
0	H	0.670487	0.0129839	0.649421
0	H	0.969621	0.660271	0.985898
0	H	0.651233	0.680576	0.819222
0	H	0.315887	0.986826	0.152832
0	H	0.0174714	0.340497	0.489789
0	H	0.370785	0.334372	0.612702
0	H	0.65548	0.0350299	0.939471
0	H	0.94976	0.626921	0.274606
0	H	0.617092	0.66679	0.107621
0	H	0.330861	0.963639	0.442003
0	H	0.0362976	0.375143	0.778507
0	H	0.394137	0.431872	0.598106
0	H	0.558969	0.962124	0.923775
0	H	0.022449	0.600909	0.262682
0	H	0.592343	0.5689	0.0946276
0	H	0.427416	0.0366829	0.427039
0	H	0.963112	0.40034	0.763293
0	H	0.328487	0.31928	0.821145
0	H	0.6712	0.00930513	0.145366
0	H	0.977145	0.669766	0.48384
0	H	0.658462	0.679013	0.316653
0	H	0.314721	0.989522	0.651267
0	H	0.0103582	0.331503	0.986281
0	H	0.263845	0.238541	0.0439773
0	H	0.749455	0.0236377	0.371672
0	H	0.964112	0.737074	0.707741
0	H	0.722983	0.758563	0.540653
0	H	0.23681	0.976359	0.877732
0	H	0.0239585	0.26398	0.209425
0	H	0.121403	0.169518	0.0636094
0	H	0.819609	0.949189	0.396521
0	H	0.0395697	0.879741	0.727883
0	H	0.865415	0.82696	0.561051
0	H	0.166431	0.0506173	0.900374
0	H	0.948756	0.12131	0.22902
0	H	0.0425126	0.179865	0.85821
0	H	0.813266	0.861263	0.191781
0	H	0.127564	0.956565	0.521679
0	H	0.944428	0.818106	0.35423
0	H	0.172311	0.137391	0.693649
0	H	0.860497	0.0445434	0.0229313
0	H	0.105423	0.25865	0.632521
0	H	0.736798	0.846932	0.962605
0	H	0.139265	0.891171	0.293654
0	H	0.881611	0.740804	0.126813
0	H	0.248949	0.151092	0.465171
0	H	0.84817	0.110136	0.795902
0	H	0.644115	0.498726	0.266831
0	H	0.496416	0.154128	0.602896
0	H	0.844685	0.349423	0.940039
0	H	0.3421	0.501165	0.770464
0	H	0.489216	0.845394	0.0978204
0	H	0.142749	0.650832	0.436257
0	H	0.656907	0.383429	0.338567
0	H	0.613157	0.277384	0.674162
0	H	0.718105	0.339048	0.00888406
0	H	0.330149	0.616982	0.84153
0	H	0.372549	0.722012	0.168971
0	H	0.269062	0.661581	0.509354
0	H	0.541816	0.263444	0.423696
0	H	0.732312	0.275491	0.752634
0	H	0.712181	0.456566	0.0872973
0	H	0.446075	0.737401	0.92229
0	H	0.253853	0.723896	0.25071
0	H	0.27459	0.544578	0.592705
0	H	0.415076	0.258007	0.442478
0	H	0.735284	0.152245	0.764858
0	H	0.830882	0.583115	0.101962
0	H	0.572934	0.742768	0.936979
0	H	0.251253	0.847268	0.266368
0	H	0.155811	0.418191	0.608393
0	H	0.471033	0.579013	0.121527
0	H	0.409623	0.901088	0.454611
0	H	0.0941605	0.520496	0.790201
0	H	0.514053	0.419199	0.622745
0	H	0.575706	0.0987104	0.953359
0	H	0.89378	0.48012	0.287137
0	H	0.577503	0.704343	0.558917
0	H	0.274111	0.87793	0.890045
0	H	0.115361	0.409992	0.226538
0	H	0.408839	0.293933	0.0616433
0	H	0.707449	0.119282	0.389805
0	H	0.87324	0.591802	0.721859
0	H	0.477056	0.658772	0.586477
0	H	0.330327	0.832455	0.921306
0	H	0.164312	0.510745	0.256502
0	H	0.509222	0.338795	0.0898317
0	H	0.653987	0.167832	0.418633
0	H	0.824306	0.491152	0.753994
0	H	0.530972	0.760258	0.582334
0	H	0.229372	0.776674	0.912483
0	H	0.216267	0.459834	0.250579
0	H	0.454794	0.237301	0.0825812
0	H	0.755155	0.220592	0.413527
0	H	0.772444	0.542112	0.747959
0	H	0.623632	0.805006	0.305777
0	H	0.18845	0.833569	0.623776
0	H	0.168376	0.366126	0.970078
0	H	0.362865	0.195755	0.803516
0	H	0.797728	0.165203	0.125968
0	H	0.818608	0.63411	0.465141
0	H	0.545269	0.824253	0.311953
0	H	0.165754	0.735864	0.645158
0	H	0.264127	0.443424	0.980995
0	H	0.440375	0.175302	0.810888
0	H	0.821463	0.263	0.151159
0	H	0.722987	0.556978	0.48031
0	H	0.555614	0.773071	0.158586
0	H	0.21924	0.789608	0.487897
0	H	0.205025	0.436255	0.826385
0	H	0.432081	0.228187	0.658471
0	H	0.769696	0.211691	0.990325
0	H	0.780429	0.562752	0.323813
0	H	0.354891	0.565775	0.361737
0	H	0.426344	0.796051	0.686043
0	H	0.194374	0.637143	0.0297733
0	H	0.631994	0.434264	0.860464
0	H	0.560681	0.203428	0.188451
0	H	0.792678	0.36269	0.523586
0	H	0.36476	0.603179	0.172674
0	H	0.385433	0.770769	0.499294
0	H	0.222039	0.625937	0.841373
0	H	0.62067	0.395528	0.672209
0	H	0.599682	0.22905	0.000288323
0	H	0.765153	0.376038	0.336557
