#******************************************
#
# CIF file created by Zeo++
# Zeo++ is an open source package to
# analyze microporous materials
#
#*******************************************

_cell_length_a		26.2686(0)
_cell_length_b		15.0838(0)
_cell_length_c		25.2577(0)
_cell_angle_alpha		90(0)
_cell_angle_beta		133.464(0)
_cell_angle_gamma		90(0)

_symmetry_space_group_name_H-M		'P1'
_symmetry_Int_Tables_number		1
_symmetry_cell_setting		Monoclinic

loop_
_symmetry_equiv_pos_as_xyz
'+x,+y,+z'

loop_
_atom_site_label
_atom_site_type_symbol
_atom_site_fract_x
_atom_site_fract_y
_atom_site_fract_z
0	S	0.321208	0.956554	0.884336
0	S	0.719393	0.954643	0.617452
0	S	0.717043	0.0573125	0.117651
0	S	0.318983	0.0584893	0.384236
0	S	0.821267	0.456357	0.885409
0	S	0.219076	0.455379	0.616891
0	S	0.217107	0.55723	0.116285
0	S	0.819143	0.558231	0.385213
0	S	0.119207	0.953467	0.739752
0	S	0.921147	0.954751	0.758403
0	S	0.919005	0.0601254	0.261864
0	S	0.11676	0.0588177	0.24233
0	S	0.618842	0.453631	0.740695
0	S	0.421252	0.455305	0.757779
0	S	0.419348	0.559657	0.260739
0	S	0.616533	0.558792	0.243016
0	P	0.210484	0.112607	0.729543
0	P	0.829046	0.113153	0.769635
0	P	0.827358	0.900722	0.271782
0	P	0.208873	0.899944	0.231805
0	P	0.710072	0.61263	0.730468
0	P	0.329564	0.613509	0.769574
0	P	0.327701	0.400409	0.270563
0	P	0.708374	0.400207	0.232107
0	O	0.287529	0.142204	0.816947
0	O	0.75172	0.141584	0.682365
0	O	0.75027	0.871336	0.184352
0	O	0.286216	0.871579	0.319136
0	O	0.787164	0.642037	0.81788
0	O	0.252179	0.642079	0.682409
0	O	0.250584	0.371226	0.183106
0	O	0.785736	0.371674	0.319345
0	O	0.13232	0.069316	0.652443
0	O	0.907269	0.0691903	0.845766
0	O	0.905549	0.944013	0.348806
0	O	0.130602	0.943468	0.15532
0	O	0.631914	0.569321	0.653366
0	O	0.407788	0.569363	0.845563
0	O	0.405876	0.443679	0.347637
0	O	0.630115	0.443873	0.155703
0	O	0.248862	0.0177723	0.73719
0	O	0.790328	0.0193714	0.763413
0	O	0.788918	0.995309	0.26445
0	O	0.247415	0.9939	0.238057
0	O	0.748389	0.517762	0.738058
0	O	0.29084	0.519664	0.763259
0	O	0.28935	0.495067	0.26326
0	O	0.746906	0.494334	0.238584
0	O	0.171141	0.141584	0.758543
0	O	0.867765	0.141974	0.739761
0	O	0.866571	0.87208	0.242562
0	O	0.170099	0.871464	0.261642
0	O	0.670691	0.641705	0.759426
0	O	0.368244	0.642504	0.739665
0	O	0.366994	0.371647	0.241441
0	O	0.669544	0.371423	0.261847
0	N	0.217024	0.190968	0.684367
0	N	0.823741	0.192378	0.815264
0	N	0.820971	0.82211	0.316917
0	N	0.214468	0.820533	0.186497
0	N	0.716555	0.690955	0.685233
0	N	0.324443	0.692497	0.815484
0	N	0.321303	0.321836	0.315715
0	N	0.713887	0.321142	0.186541
0	C	0.150087	0.23638	0.623086
0	C	0.891324	0.236268	0.876955
0	C	0.887953	0.776763	0.378182
0	C	0.147009	0.776224	0.124999
0	C	0.649547	0.736077	0.623741
0	C	0.392102	0.736089	0.877366
0	C	0.388328	0.276697	0.377147
0	C	0.64643	0.276976	0.124919
0	C	0.277922	0.252453	0.731159
0	C	0.763828	0.255301	0.768781
0	C	0.760154	0.760524	0.270098
0	C	0.274548	0.757912	0.233173
0	C	0.777273	0.752678	0.732033
0	C	0.264651	0.755592	0.769148
0	C	0.260614	0.260079	0.268848
0	C	0.77396	0.25845	0.233105
0	C	0.297487	0.137392	0.877674
0	C	0.741279	0.135499	0.621343
0	C	0.740265	0.876445	0.123601
0	C	0.296625	0.877722	0.380129
0	C	0.797219	0.637249	0.878691
0	C	0.241612	0.636265	0.621281
0	C	0.240506	0.376268	0.122292
0	C	0.796238	0.377378	0.380432
0	C	0.31573	0.0571885	0.914898
0	C	0.723063	0.0547005	0.584843
0	C	0.722223	0.956853	0.0866733
0	C	0.314943	0.958517	0.41665
0	C	0.815815	0.557078	0.916067
0	C	0.222961	0.555611	0.584469
0	C	0.222157	0.456629	0.085194
0	C	0.814958	0.457942	0.417353
0	C	0.122112	0.981042	0.634156
0	C	0.917185	0.980701	0.863391
0	C	0.915717	0.0322729	0.367169
0	C	0.120471	0.0318062	0.137234
0	C	0.621648	0.48095	0.635031
0	C	0.417778	0.480758	0.863125
0	C	0.416104	0.532025	0.366065
0	C	0.619886	0.53233	0.137661
0	C	0.111753	0.920506	0.667973
0	C	0.928075	0.920924	0.829674
0	C	0.926307	0.0928433	0.333585
0	C	0.10966	0.0920019	0.170825
0	C	0.61133	0.420431	0.668893
0	C	0.428462	0.421055	0.829183
0	C	0.426676	0.592606	0.332466
0	C	0.609204	0.592439	0.171411
0	C	0.320776	0.0141281	0.781827
0	C	0.718369	0.0153763	0.718237
0	C	0.716999	0.999061	0.219683
0	C	0.319349	0.99781	0.282966
0	C	0.820272	0.514076	0.782481
0	C	0.218911	0.515886	0.718379
0	C	0.217443	0.498939	0.218614
0	C	0.818825	0.498102	0.283295
0	C	0.362293	0.984572	0.853667
0	C	0.677542	0.983456	0.647119
0	C	0.675678	0.0291357	0.147981
0	C	0.360477	0.029505	0.354193
0	C	0.861977	0.484401	0.854341
0	C	0.177733	0.484235	0.647113
0	C	0.176021	0.529126	0.146936
0	C	0.860217	0.529418	0.354676
0	C	0.0999111	0.133187	0.717047
0	C	0.938962	0.134677	0.780886
0	C	0.937817	0.880261	0.284051
0	C	0.0988744	0.878852	0.220427
0	C	0.599388	0.633378	0.717721
0	C	0.439486	0.635174	0.780907
0	C	0.438324	0.379755	0.283192
0	C	0.598263	0.378855	0.220456
0	C	0.0689307	0.0510857	0.70579
0	C	0.970584	0.0530561	0.792269
0	C	0.968991	0.962266	0.295533
0	C	0.0672655	0.960573	0.208789
0	C	0.568415	0.551256	0.706425
0	C	0.470981	0.553512	0.792113
0	C	0.46949	0.461803	0.294753
0	C	0.566766	0.460629	0.208972
0	H	0.106768	0.187658	0.58765
0	H	0.934007	0.186625	0.911833
0	H	0.931257	0.825508	0.413569
0	H	0.104109	0.825558	0.0899305
0	H	0.606384	0.687161	0.588359
0	H	0.434631	0.686281	0.91215
0	H	0.431537	0.325572	0.412528
0	H	0.603613	0.326398	0.0899212
0	H	0.156205	0.269268	0.588593
0	H	0.885732	0.269233	0.911838
0	H	0.88189	0.743891	0.412719
0	H	0.152663	0.74311	0.0901882
0	H	0.655724	0.769	0.589307
0	H	0.386482	0.768996	0.912241
0	H	0.382194	0.243805	0.411628
0	H	0.652133	0.243938	0.090125
0	H	0.133438	0.287929	0.639945
0	H	0.908575	0.287527	0.860538
0	H	0.904571	0.725217	0.361298
0	H	0.129961	0.724961	0.141647
0	H	0.632691	0.787575	0.640409
0	H	0.409539	0.787289	0.861137
0	H	0.405122	0.22519	0.360418
0	H	0.629286	0.225668	0.141429
0	H	0.280745	0.292168	0.696414
0	H	0.761482	0.295567	0.803695
0	H	0.757296	0.720766	0.304807
0	H	0.277	0.717519	0.198407
0	H	0.78026	0.792179	0.697338
0	H	0.262156	0.79539	0.804128
0	H	0.257604	0.220511	0.303502
0	H	0.776567	0.218567	0.198271
0	H	0.277018	0.299623	0.764219
0	H	0.765602	0.302061	0.736184
0	H	0.761169	0.713368	0.237114
0	H	0.272906	0.71128	0.265926
0	H	0.775951	0.800031	0.764693
0	H	0.266703	0.802716	0.73692
0	H	0.262014	0.212789	0.236229
0	H	0.772119	0.211453	0.265528
0	H	0.327508	0.214426	0.769522
0	H	0.713659	0.218484	0.730103
0	H	0.710501	0.798426	0.231653
0	H	0.324598	0.794969	0.271717
0	H	0.826934	0.714841	0.770765
0	H	0.214389	0.718969	0.730033
0	H	0.210938	0.297844	0.230083
0	H	0.824026	0.295471	0.272015
0	H	0.305651	0.360892	0.907516
0	H	0.732628	0.358514	0.589544
0	H	0.731421	0.653115	0.0929079
0	H	0.305362	0.654788	0.412105
0	H	0.804442	0.860702	0.908108
0	H	0.233893	0.859318	0.590232
0	H	0.232592	0.152939	0.0920762
0	H	0.803962	0.154296	0.411348
0	H	0.224781	0.313846	0.827316
0	H	0.813519	0.311777	0.670121
0	H	0.812464	0.699645	0.173274
0	H	0.2243	0.701251	0.331539
0	H	0.723854	0.813103	0.828043
0	H	0.314578	0.812055	0.670601
0	H	0.313292	0.200084	0.17235
0	H	0.723201	0.201471	0.330995
0	H	0.301669	0.305844	0.842909
0	H	0.736726	0.304784	0.654667
0	H	0.735659	0.707843	0.157791
0	H	0.300958	0.708393	0.346735
0	H	0.800825	0.805918	0.843688
0	H	0.23776	0.805601	0.655173
0	H	0.236314	0.207458	0.156653
0	H	0.8	0.208087	0.346367
0	H	0.302662	0.0948617	0.0690786
0	H	0.729693	0.0866363	0.425739
0	H	0.735335	0.919452	0.932416
0	H	0.308623	0.928247	0.5759
0	H	0.802925	0.594412	0.070371
0	H	0.230757	0.589663	0.426146
0	H	0.234755	0.419476	0.930591
0	H	0.807724	0.425242	0.575945
0	H	0.394039	0.0936436	0.121827
0	H	0.638874	0.0913927	0.375338
0	H	0.643986	0.921872	0.879723
0	H	0.399334	0.920561	0.626313
0	H	0.894274	0.593515	0.123109
0	H	0.139867	0.590958	0.375526
0	H	0.143454	0.421355	0.87802
0	H	0.898546	0.420564	0.626544
0	H	0.34987	0.195429	0.0991254
0	H	0.686408	0.190164	0.398321
0	H	0.687307	0.819519	0.901713
0	H	0.349954	0.823387	0.602327
0	H	0.849878	0.695145	0.100312
0	H	0.185209	0.691557	0.397485
0	H	0.187141	0.319257	0.900177
0	H	0.850995	0.321726	0.603285
0	H	0.17155	0.052681	0.572452
0	H	0.865464	0.0481465	0.924931
0	H	0.865417	0.961342	0.428522
0	H	0.171159	0.961818	0.0758179
0	H	0.670774	0.553068	0.573232
0	H	0.366566	0.547797	0.925399
0	H	0.366058	0.460493	0.427366
0	H	0.670173	0.462561	0.0757415
0	H	0.109361	0.992963	0.488749
0	H	0.932	0.992716	0.00991496
0	H	0.928787	0.0197188	0.512741
0	H	0.106728	0.0192202	0.991375
0	H	0.609074	0.492882	0.489755
0	H	0.43377	0.492822	0.0103889
0	H	0.428737	0.519477	0.511341
0	H	0.605439	0.519818	0.991346
0	H	0.0804927	0.0752921	0.513015
0	H	0.955084	0.0764386	0.98056
0	H	0.956119	0.937099	0.487014
0	H	0.0807672	0.936419	0.0183733
0	H	0.579616	0.575124	0.513473
0	H	0.455895	0.5768	0.980195
0	H	0.456922	0.436974	0.486415
0	H	0.579907	0.436823	0.0186982
0	H	0.047031	0.674737	0.576057
0	H	0.988983	0.673208	0.916924
0	H	0.990726	0.338541	0.425447
0	H	0.0477027	0.338977	0.0817707
0	H	0.547491	0.174284	0.577912
0	H	0.489543	0.173309	0.916106
0	H	0.490381	0.838575	0.423587
0	H	0.546907	0.839384	0.0824993
0	H	0.128153	0.673002	0.600005
0	H	0.910834	0.673188	0.898804
0	H	0.909897	0.340161	0.402094
0	H	0.126633	0.339169	0.101406
0	H	0.627751	0.17336	0.600082
0	H	0.411897	0.173376	0.898967
0	H	0.410271	0.839491	0.401718
0	H	0.625543	0.839593	0.10151
0	H	0.0500217	0.699738	0.509712
0	H	0.991999	0.699097	0.987366
0	H	0.988319	0.313163	0.492172
0	H	0.0462109	0.312836	0.0124204
0	H	0.548567	0.199903	0.510274
0	H	0.493605	0.199239	0.987227
0	H	0.489581	0.812657	0.491386
0	H	0.544764	0.813241	0.0127154
0	H	0.251335	0.0413135	0.640537
0	H	0.786422	0.0488568	0.858155
0	H	0.78604	0.970112	0.360646
0	H	0.250686	0.965221	0.14268
0	H	0.750438	0.541162	0.64106
0	H	0.287688	0.548892	0.858532
0	H	0.286773	0.470164	0.359689
0	H	0.749611	0.466249	0.142789
0	H	0.308256	0.132069	0.672017
0	H	0.727577	0.137955	0.824363
0	H	0.728365	0.880067	0.328451
0	H	0.308971	0.875547	0.176096
0	H	0.807058	0.632346	0.672558
0	H	0.228989	0.638118	0.825237
0	H	0.229406	0.37966	0.327435
0	H	0.807794	0.376506	0.175689
0	H	0.325762	0.0302404	0.651761
0	H	0.712075	0.0364507	0.846902
0	H	0.711637	0.982002	0.349369
0	H	0.324969	0.976777	0.153734
0	H	0.824682	0.530962	0.651899
0	H	0.213733	0.536492	0.847928
0	H	0.2125	0.481126	0.348714
0	H	0.823576	0.477992	0.153338
0	H	0.567162	0.939922	0.967532
0	H	0.470999	0.946975	0.527626
0	H	0.471505	0.0781181	0.0358104
0	H	0.566985	0.0653269	0.472856
0	H	0.0667244	0.440224	0.967953
0	H	0.971476	0.447692	0.528699
0	H	0.971966	0.577897	0.0347707
0	H	0.0665241	0.565248	0.472617
0	H	0.556607	0.955215	0.891436
0	H	0.483454	0.942799	0.605458
0	H	0.481157	0.0560985	0.110679
0	H	0.554165	0.0690567	0.394797
0	H	0.0555156	0.45271	0.891236
0	H	0.984253	0.44399	0.606738
0	H	0.982206	0.558853	0.110342
0	H	0.0534668	0.569036	0.394414
0	H	0.569241	0.0478325	0.942396
0	H	0.470068	0.0459391	0.564004
0	H	0.467899	0.967892	0.0561363
0	H	0.567329	0.966088	0.43632
0	H	0.068532	0.547063	0.940995
0	H	0.970804	0.546961	0.565044
0	H	0.968497	0.468663	0.056973
0	H	0.0666289	0.465987	0.435866
0	H	0.148541	0.301893	0.763111
0	H	0.889131	0.303136	0.734742
0	H	0.888697	0.711831	0.237684
0	H	0.148536	0.71032	0.267189
0	H	0.647727	0.802212	0.763682
0	H	0.390116	0.803858	0.735238
0	H	0.389462	0.211263	0.236864
0	H	0.647462	0.210097	0.266747
0	H	0.0652686	0.355193	0.705458
0	H	0.972122	0.356942	0.790934
0	H	0.971826	0.658231	0.294686
0	H	0.0654476	0.656637	0.210491
0	H	0.564395	0.85536	0.705639
0	H	0.473231	0.857401	0.791883
0	H	0.472635	0.157771	0.2942
0	H	0.564258	0.156666	0.209548
0	H	0.0987855	0.314276	0.668527
0	H	0.940295	0.31636	0.829641
0	H	0.938923	0.698794	0.332339
0	H	0.0979572	0.697055	0.172438
0	H	0.59842	0.814436	0.669218
0	H	0.44091	0.816653	0.830054
0	H	0.439254	0.198241	0.331393
0	H	0.597303	0.197281	0.172088
0	H	0.860393	0.0530085	0.586007
0	H	0.178548	0.0572428	0.909864
0	H	0.177295	0.959897	0.414582
0	H	0.859322	0.956756	0.0912615
0	H	0.359476	0.552888	0.584736
0	H	0.679235	0.556938	0.91118
0	H	0.678179	0.459842	0.415738
0	H	0.358557	0.457581	0.0900101
0	H	0.850045	0.165619	0.560048
0	H	0.188711	0.168205	0.938826
0	H	0.187706	0.847692	0.44139
0	H	0.849073	0.845843	0.0621384
0	H	0.349438	0.66598	0.55968
0	H	0.689387	0.668017	0.940153
0	H	0.688346	0.347201	0.441795
0	H	0.348279	0.346635	0.0607068
0	H	0.876327	0.136868	0.64414
0	H	0.16296	0.144252	0.854178
0	H	0.161507	0.875156	0.357125
0	H	0.87472	0.86963	0.146765
0	H	0.375027	0.635919	0.643224
0	H	0.664291	0.643962	0.855824
0	H	0.662872	0.375799	0.358052
0	H	0.373235	0.370261	0.145023
0	H	0.342256	0.990858	0.00700465
0	H	0.694807	0.98705	0.492287
0	H	0.69583	0.0236485	0.994786
0	H	0.342993	0.0262841	0.50907
0	H	0.842911	0.490634	0.00846417
0	H	0.194194	0.488138	0.491568
0	H	0.195163	0.523455	0.992973
0	H	0.843543	0.525274	0.51022
0	H	0.31851	0.274879	0.99917
0	H	0.718752	0.270968	0.498117
0	H	0.718948	0.739579	0.00165007
0	H	0.318888	0.74241	0.503277
0	H	0.818174	0.774611	0.000202011
0	H	0.219383	0.77202	0.498362
0	H	0.219134	0.239396	0.000313319
0	H	0.818288	0.241386	0.503143
0	H	0.0889114	0.784785	0.67271
0	H	0.951646	0.78566	0.824875
0	H	0.949553	0.228538	0.329298
0	H	0.0861947	0.227482	0.175259
0	H	0.588512	0.284761	0.673722
0	H	0.451991	0.285913	0.824138
0	H	0.449895	0.728251	0.328099
0	H	0.585718	0.72778	0.176054
0	H	0.0902971	0.844753	0.506681
0	H	0.946836	0.842612	0.988791
0	H	0.946992	0.16836	0.494441
0	H	0.090191	0.168816	0.0109766
0	H	0.589585	0.344725	0.507424
0	H	0.44831	0.342592	0.988952
0	H	0.447664	0.667993	0.493517
0	H	0.588828	0.669406	0.0110376
0	H	0.466497	0.951508	0.95529
0	H	0.574066	0.94702	0.545979
0	H	0.571698	0.0631281	0.0464648
0	H	0.464212	0.0655	0.455189
0	H	0.966296	0.450984	0.95567
0	H	0.0739898	0.448235	0.546159
0	H	0.0719753	0.563525	0.0456516
0	H	0.964177	0.564921	0.455597
0	H	0.447855	0.035181	0.77917
0	H	0.589832	0.0389875	0.718566
0	H	0.589571	0.978008	0.221816
0	H	0.447244	0.974189	0.281679
0	H	0.946817	0.534544	0.778962
0	H	0.0911131	0.539319	0.719853
0	H	0.0904297	0.478621	0.22145
0	H	0.946148	0.474978	0.281095
0	H	0.974655	0.981889	0.661218
0	H	0.0653631	0.985213	0.836814
0	H	0.0634169	0.0311813	0.340254
0	H	0.972481	0.0286383	0.163992
0	H	0.473993	0.481857	0.661371
0	H	0.565803	0.485349	0.836926
0	H	0.564085	0.530949	0.340063
0	H	0.471922	0.528995	0.163852
0	H	0.958921	0.266513	0.638624
0	H	0.0787921	0.269863	0.858082
0	H	0.0784908	0.74648	0.362035
0	H	0.958974	0.743911	0.143411
0	H	0.458087	0.766542	0.638356
0	H	0.579798	0.769969	0.859286
0	H	0.579339	0.246174	0.362194
0	H	0.457879	0.244286	0.142203
0	C	0.330328	0.0539707	0.979594
0	C	0.707091	0.0504922	0.519424
0	C	0.707604	0.960388	0.0219593
0	C	0.33073	0.962823	0.481964
0	C	0.830673	0.553842	0.980924
0	C	0.20681	0.551599	0.51893
0	C	0.20723	0.460124	0.0202955
0	C	0.830958	0.461868	0.482808
0	C	0.330179	0.132132	0.00926867
0	C	0.706485	0.128113	0.488692
0	C	0.707576	0.882378	0.992034
0	C	0.331202	0.885254	0.512653
0	C	0.830333	0.631937	0.0105301
0	C	0.206522	0.62926	0.488471
0	C	0.207303	0.382124	0.990417
0	C	0.831166	0.384129	0.51316
0	C	0.315729	0.213384	0.973949
0	C	0.721608	0.209862	0.523765
0	C	0.721843	0.80094	0.027069
0	C	0.3161	0.803472	0.477634
0	C	0.815518	0.713152	0.97501
0	C	0.222044	0.710859	0.523864
0	C	0.221936	0.300767	0.0256958
0	C	0.815668	0.302603	0.477712
0	C	0.298854	0.217664	0.908204
0	C	0.739302	0.215165	0.58992
0	C	0.738674	0.796333	0.0927868
0	C	0.298474	0.798091	0.411516
0	C	0.798409	0.717452	0.909136
0	C	0.239906	0.715989	0.590111
0	C	0.23904	0.29619	0.0915576
0	C	0.797843	0.297588	0.411475
0	C	0.282341	0.303759	0.870523
0	C	0.755918	0.301809	0.626963
0	C	0.754939	0.710027	0.130136
0	C	0.281887	0.711392	0.374566
0	C	0.781454	0.803509	0.871246
0	C	0.256953	0.802491	0.627484
0	C	0.255726	0.209942	0.129142
0	C	0.780818	0.211117	0.374078
0	C	0.34509	0.128982	0.0780209
0	C	0.689442	0.124017	0.418804
0	C	0.69264	0.885851	0.923269
0	C	0.348166	0.889418	0.582494
0	C	0.845273	0.628731	0.0792978
0	C	0.18962	0.625321	0.418645
0	C	0.192231	0.385587	0.921576
0	C	0.848042	0.387947	0.582972
0	C	0.0964331	0.831924	0.645931
0	C	0.943426	0.832178	0.851398
0	C	0.941733	0.181379	0.355802
0	C	0.0942553	0.180631	0.148777
0	C	0.595994	0.331856	0.646862
0	C	0.443931	0.332326	0.85088
0	C	0.442117	0.681111	0.354682
0	C	0.593672	0.681029	0.149393
0	C	0.0903652	0.804129	0.588874
0	C	0.948597	0.803572	0.90772
0	C	0.947507	0.209074	0.412691
0	C	0.0888393	0.208718	0.0921964
0	C	0.589869	0.304095	0.589761
0	C	0.449453	0.303692	0.907412
0	C	0.447958	0.708751	0.411627
0	C	0.587956	0.709166	0.0926275
0	C	0.0973104	0.866339	0.552613
0	C	0.940814	0.865066	0.943693
0	C	0.940205	0.146835	0.448639
0	C	0.0964224	0.14679	0.056288
0	C	0.596725	0.366307	0.553429
0	C	0.441933	0.365084	0.943646
0	C	0.440735	0.646494	0.447627
0	C	0.595363	0.647347	0.0565294
0	C	0.112975	0.955149	0.574103
0	C	0.925553	0.954064	0.922828
0	C	0.924571	0.0580425	0.427067
0	C	0.111811	0.0579031	0.0775244
0	C	0.612412	0.455104	0.574921
0	C	0.426513	0.454073	0.922789
0	C	0.425041	0.557736	0.42602
0	C	0.610929	0.558488	0.0777684
0	C	0.118996	0.0213638	0.535011
0	C	0.919165	0.0201452	0.961683
0	C	0.918328	0.991715	0.465911
0	C	0.117999	0.991494	0.038685
0	C	0.618346	0.521438	0.535752
0	C	0.420365	0.520204	0.961862
0	C	0.418811	0.49128	0.464877
0	C	0.616971	0.492046	0.0387725
0	C	0.0775842	0.708764	0.567192
0	C	0.96138	0.708114	0.929091
0	C	0.960417	0.304375	0.434567
0	C	0.0760609	0.30407	0.0705298
0	C	0.577131	0.208747	0.568054
0	C	0.462391	0.208221	0.928815
0	C	0.460837	0.804035	0.433534
0	C	0.57501	0.804523	0.0709236
0	C	0.434409	0.973823	0.899118
0	C	0.605469	0.971626	0.601451
0	C	0.603596	0.0403345	0.102487
0	C	0.432541	0.0410897	0.399615
0	C	0.934041	0.473368	0.899495
0	C	0.105688	0.472556	0.601746
0	C	0.103989	0.540673	0.101663
0	C	0.932271	0.540887	0.399903
0	C	0.465435	0.992542	0.872233
0	C	0.573632	0.992042	0.627182
0	C	0.572367	0.0215516	0.129146
0	C	0.464037	0.0206621	0.373515
0	C	0.9648	0.491924	0.872306
0	C	0.0742359	0.492819	0.627926
0	C	0.0729537	0.522118	0.128578
0	C	0.963469	0.520751	0.373422
0	C	0.423317	0.0207223	0.799616
0	C	0.614977	0.0230094	0.698998
0	C	0.614248	0.992648	0.201546
0	C	0.422349	0.990059	0.301542
0	C	0.922472	0.520226	0.799652
0	C	0.115951	0.523472	0.699911
0	C	0.114965	0.493079	0.200982
0	C	0.921492	0.490595	0.301271
0	C	0.35071	0.0310883	0.752969
0	C	0.687545	0.0342559	0.745936
0	C	0.68683	0.9818	0.248243
0	C	0.349809	0.979034	0.254865
0	C	0.849944	0.530939	0.753327
0	C	0.188491	0.534611	0.746539
0	C	0.187478	0.481814	0.24743
0	C	0.84897	0.479647	0.254808
0	C	0.307478	0.0593075	0.675982
0	C	0.729899	0.0651954	0.822148
0	C	0.729741	0.95282	0.325004
0	C	0.307093	0.948361	0.178524
0	C	0.806529	0.559511	0.676387
0	C	0.2312	0.565343	0.822858
0	C	0.230521	0.452488	0.324122
0	C	0.805996	0.449319	0.178347
0	C	0.542688	0.983292	0.920234
0	C	0.496448	0.981403	0.579113
0	C	0.49517	0.0315345	0.0811365
0	C	0.541222	0.0308079	0.42132
0	C	0.0419462	0.482282	0.919934
0	C	0.99712	0.482238	0.580187
0	C	0.995869	0.532619	0.0808776
0	C	0.0405927	0.530875	0.420993
0	C	0.998397	0.0460611	0.669564
0	C	0.0410804	0.0489823	0.828239
0	C	0.0395227	0.967083	0.331733
0	C	0.996754	0.964787	0.172755
0	C	0.497777	0.546095	0.669803
0	C	0.541572	0.5492	0.828432
0	C	0.540148	0.466771	0.331417
0	C	0.496152	0.465056	0.17255
0	C	0.958335	0.123772	0.644826
0	C	0.0805423	0.127208	0.852585
0	C	0.0793957	0.889219	0.356228
0	C	0.957277	0.886618	0.148565
0	C	0.457591	0.623762	0.644686
0	C	0.581263	0.627302	0.853324
0	C	0.580146	0.388956	0.35629
0	C	0.456451	0.387018	0.147812
0	C	0.990066	0.206196	0.657382
0	C	0.0481531	0.209132	0.839701
0	C	0.0474767	0.806895	0.343449
0	C	0.989647	0.804601	0.161684
0	C	0.489325	0.706203	0.657373
0	C	0.548982	0.709286	0.840512
0	C	0.548221	0.306599	0.343337
0	C	0.488728	0.304931	0.160879
0	C	0.0607585	0.212522	0.693731
0	C	0.977511	0.214482	0.803659
0	C	0.976783	0.800778	0.30712
0	C	0.0603183	0.799107	0.197831
0	C	0.560139	0.71265	0.69412
0	C	0.478227	0.71486	0.804118
0	C	0.477388	0.300348	0.306552
0	C	0.559512	0.29923	0.197399
0	C	0.0943378	0.300191	0.708319
0	C	0.943671	0.30191	0.789065
0	C	0.943034	0.713192	0.292323
0	C	0.0941524	0.711583	0.212675
0	C	0.593658	0.800417	0.708762
0	C	0.444542	0.802393	0.789665
0	C	0.443676	0.212658	0.291631
0	C	0.593208	0.211607	0.212115
0	C	0.883059	0.119412	0.606719
0	C	0.155889	0.123916	0.89085
0	C	0.154685	0.893383	0.394355
0	C	0.881887	0.890029	0.110183
0	C	0.382146	0.61926	0.605999
0	C	0.656767	0.623773	0.892155
0	C	0.655613	0.39331	0.395038
0	C	0.380901	0.390665	0.108846
