#******************************************
#
# CIF file created by Zeo++
# Zeo++ is an open source package to
# analyze microporous materials
#
#*******************************************

_cell_length_a		7.21454(0)
_cell_length_b		11.3625(0)
_cell_length_c		32.527(0)
_cell_angle_alpha		90(0)
_cell_angle_beta		90(0)
_cell_angle_gamma		90(0)

_symmetry_space_group_name_H-M		'P1'
_symmetry_Int_Tables_number		1
_symmetry_cell_setting		Monoclinic

loop_
_symmetry_equiv_pos_as_xyz
'+x,+y,+z'

loop_
_atom_site_label
_atom_site_type_symbol
_atom_site_fract_x
_atom_site_fract_y
_atom_site_fract_z
0	C	0.10102	0.365434	0.369424
0	C	0.436302	0.662487	0.872716
0	C	0.941242	0.871452	0.137751
0	C	0.594484	0.161048	0.64111
0	H	0.133844	0.411078	0.398256
0	H	0.405307	0.616487	0.901556
0	H	0.914505	0.917509	0.108711
0	H	0.6268	0.115809	0.612173
0	H	0.00889434	0.422837	0.351603
0	H	0.526203	0.60507	0.854369
0	H	0.0324711	0.927445	0.156326
0	H	0.501777	0.103747	0.658826
0	H	0.231684	0.357746	0.352464
0	H	0.304346	0.671129	0.856312
0	H	0.807573	0.865766	0.153642
0	H	0.725334	0.167644	0.658051
0	C	0.142962	0.171124	0.404625
0	C	0.398819	0.856514	0.908354
0	C	0.89416	0.676774	0.103151
0	C	0.638425	0.355588	0.606144
0	H	0.276294	0.154551	0.389645
0	H	0.264937	0.874196	0.893761
0	H	0.760637	0.661011	0.118156
0	H	0.770754	0.373637	0.621368
0	H	0.0832602	0.0852184	0.412601
0	H	0.459936	0.94206	0.916333
0	H	0.952401	0.590511	0.0951583
0	H	0.577721	0.440701	0.597633
0	H	0.172008	0.216859	0.433568
0	H	0.370673	0.810525	0.937277
0	H	0.865636	0.722746	0.0742289
0	H	0.669676	0.308861	0.57751
0	C	0.0132358	0.244457	0.377249
0	C	0.526009	0.782936	0.880488
0	C	0.0253744	0.749141	0.130501
0	C	0.508402	0.282653	0.633571
0	H	0.879967	0.257462	0.394179
0	H	0.660033	0.769052	0.897035
0	H	0.159531	0.759951	0.113725
0	H	0.374525	0.270702	0.616793
0	C	0.973223	0.17991	0.336404
0	C	0.564523	0.847768	0.839619
0	C	0.0620632	0.68512	0.171607
0	C	0.470744	0.346943	0.674575
0	H	0.107954	0.169879	0.319956
0	H	0.429231	0.857794	0.823411
0	H	0.926734	0.677823	0.187972
0	H	0.606084	0.355462	0.690886
0	C	0.88804	0.0555434	0.343204
0	C	0.649464	0.972191	0.846455
0	C	0.142195	0.559141	0.165331
0	C	0.388283	0.472267	0.668239
0	H	0.997879	0.989226	0.34718
0	H	0.539172	0.0382152	0.85043
0	H	0.0294136	0.494447	0.162214
0	H	0.499833	0.537722	0.664897
0	H	0.803987	0.0535085	0.371631
0	H	0.733117	0.974302	0.874917
0	H	0.223427	0.554104	0.136603
0	H	0.305855	0.476487	0.639636
0	C	0.764926	0.0279202	0.305479
0	C	0.772641	3.20248e-05	0.808759
0	C	0.266819	0.531522	0.20284
0	C	0.264242	0.499319	0.705894
0	H	0.617529	0.0207717	0.314191
0	H	0.920118	0.00646825	0.817486
0	H	0.41361	0.523499	0.193758
0	H	0.117104	0.506463	0.696999
0	H	0.80305	0.943668	0.29106
0	H	0.735277	0.0846828	0.794538
0	H	0.228403	0.447676	0.217495
0	H	0.301856	0.583442	0.720467
0	C	0.797788	0.132271	0.276423
0	C	0.738752	0.896259	0.77949
0	C	0.236339	0.636559	0.231766
0	C	0.296896	0.394563	0.734822
0	H	0.936011	0.114546	0.261163
0	H	0.600278	0.914361	0.764416
0	H	0.0975039	0.620497	0.246957
0	H	0.43578	0.411574	0.749877
0	C	0.831422	0.238922	0.306042
0	C	0.705503	0.789196	0.808959
0	C	0.205771	0.742867	0.201824
0	C	0.328614	0.288294	0.70493
0	C	0.6607	0.280762	0.33013
0	C	0.876644	0.746894	0.832793
0	C	0.377825	0.781691	0.177608
0	C	0.156854	0.248079	0.680908
0	H	0.699136	0.345936	0.353456
0	H	0.838599	0.681506	0.856071
0	H	0.342256	0.848155	0.154518
0	H	0.193089	0.181234	0.657988
0	H	0.591346	0.207953	0.345898
0	H	0.946565	0.819451	0.848585
0	H	0.442944	0.70782	0.161542
0	H	0.0906041	0.32122	0.664663
0	H	0.557789	0.32233	0.309871
0	H	0.978956	0.705413	0.812351
0	H	0.483427	0.820527	0.197835
0	H	0.0519044	0.209122	0.701281
0	C	0.907046	0.341379	0.279825
0	C	0.629195	0.68724	0.782612
0	C	0.133091	0.847022	0.22762
0	C	0.403753	0.18484	0.730719
0	H	0.0489544	0.321204	0.269108
0	H	0.487234	0.707892	0.771985
0	H	0.990397	0.828928	0.238305
0	H	0.546246	0.204147	0.741296
0	H	0.920324	0.421652	0.298991
0	H	0.615572	0.606748	0.801648
0	H	0.122474	0.926861	0.208128
0	H	0.415706	0.105018	0.711293
0	C	0.780495	0.36738	0.242757
0	C	0.755168	0.661507	0.745427
0	C	0.259719	0.872568	0.264677
0	C	0.278262	0.158508	0.767881
0	H	0.644793	0.400879	0.25401
0	H	0.890827	0.627569	0.756546
0	H	0.396668	0.904486	0.253396
0	H	0.141758	0.125542	0.756766
0	H	0.841608	0.440297	0.224691
0	H	0.693392	0.588915	0.727289
0	H	0.200292	0.946627	0.282475
0	H	0.339353	0.0849883	0.78568
0	C	0.749338	0.25928	0.214414
0	C	0.786469	0.769833	0.71719
0	C	0.287409	0.764955	0.293408
0	C	0.249211	0.266109	0.796546
0	C	0.937899	0.223055	0.195759
0	C	0.597781	0.806134	0.698603
0	C	0.0974359	0.731619	0.312019
0	C	0.438836	0.300866	0.815046
0	H	0.0152444	0.299756	0.184804
0	H	0.520576	0.729446	0.687613
0	H	0.0227753	0.809657	0.322789
0	H	0.51542	0.223399	0.8256
0	H	0.920635	0.163275	0.169596
0	H	0.614859	0.866078	0.672468
0	H	0.112335	0.672025	0.338301
0	H	0.423047	0.359888	0.841462
0	H	0.0252074	0.177807	0.218486
0	H	0.510578	0.851216	0.721382
0	H	0.00876138	0.687326	0.289329
0	H	0.525942	0.346314	0.792345
0	C	0.662699	0.155121	0.240496
0	C	0.873192	0.873767	0.743391
0	C	0.371373	0.658965	0.267788
0	C	0.162988	0.371483	0.770971
0	C	0.464628	0.182604	0.255111
0	C	0.0715532	0.846233	0.757843
0	C	0.570545	0.683342	0.253279
0	C	0.963806	0.345726	0.756696
0	H	0.364128	0.17611	0.22998
0	H	0.171596	0.852762	0.73262
0	H	0.67002	0.677599	0.278638
0	H	0.864776	0.35089	0.782156
0	H	0.453656	0.271492	0.268217
0	H	0.0827394	0.757351	0.770919
0	H	0.584386	0.771113	0.239401
0	H	0.951153	0.257826	0.742888
0	H	0.421296	0.120682	0.279126
0	H	0.1153	0.908131	0.781812
0	H	0.613052	0.619221	0.229905
0	H	0.91975	0.409431	0.733356
0	C	0.650702	0.0438874	0.212888
0	C	0.884917	0.985241	0.7159
0	C	0.379904	0.548737	0.295963
0	C	0.153505	0.481824	0.799079
0	H	0.787978	0.000257924	0.210747
0	H	0.747478	0.0286889	0.713809
0	H	0.240944	0.507317	0.298452
0	H	0.29165	0.52419	0.801369
0	H	0.557281	0.977863	0.227723
0	H	0.97813	0.0512177	0.730797
0	H	0.47024	0.480845	0.281415
0	H	0.0614606	0.549063	0.784607
0	C	0.582588	0.0702295	0.170459
0	C	0.952758	0.95937	0.673398
0	C	0.449335	0.575829	0.338257
0	C	0.0850499	0.454352	0.841428
0	H	0.551577	0.992017	0.152098
0	H	0.983507	0.0378585	0.655167
0	H	0.479015	0.49787	0.356854
0	H	0.054433	0.532074	0.860059
0	C	0.563198	0.178638	0.154681
0	C	0.971521	0.851199	0.657387
0	C	0.470652	0.684511	0.353703
0	C	0.0648479	0.345498	0.856787
0	C	0.611356	0.288949	0.178712
0	C	0.924386	0.740642	0.68138
0	C	0.4253	0.794363	0.329174
0	C	0.112173	0.23586	0.832352
0	H	0.479787	0.322415	0.192826
0	H	0.0563514	0.707576	0.695433
0	H	0.557987	0.826095	0.315054
0	H	0.980038	0.203012	0.818295
0	C	0.685641	0.385382	0.149882
0	C	0.850971	0.643997	0.652504
0	C	0.352461	0.892467	0.357532
0	C	0.186922	0.138464	0.860746
0	H	0.81822	0.355939	0.135751
0	H	0.718413	0.673102	0.63826
0	H	0.219194	0.86461	0.371711
0	H	0.320024	0.16723	0.874797
0	H	0.721128	0.464991	0.167865
0	H	0.815803	0.5643	0.670474
0	H	0.318827	0.971635	0.339131
0	H	0.221673	0.0593301	0.842417
0	C	0.550499	0.418604	0.115269
0	C	0.98695	0.611087	0.617996
0	C	0.48762	0.926018	0.392095
0	C	0.0526002	0.104389	0.895413
0	H	0.477227	0.501541	0.122933
0	H	0.0637535	0.529659	0.626137
0	H	0.564862	0.00731327	0.383871
0	H	0.979784	0.0212121	0.887716
0	H	0.633215	0.438109	0.087238
0	H	0.904707	0.588802	0.590161
0	H	0.404784	0.948854	0.419798
0	H	0.135826	0.0849429	0.923375
0	C	0.405901	0.322761	0.106364
0	C	0.127989	0.708508	0.608308
0	C	0.628252	0.828777	0.402126
0	C	0.907171	0.199594	0.904473
0	H	0.293794	0.332036	0.129986
0	H	0.24285	0.700372	0.631314
0	H	0.743065	0.835905	0.379059
0	H	0.795626	0.190795	0.880735
0	C	0.489752	0.196325	0.11143
0	C	0.0414641	0.834067	0.613805
0	C	0.541527	0.703114	0.397142
0	C	0.990634	0.32632	0.899897
0	C	0.648305	0.186812	0.079459
0	C	0.879004	0.841219	0.582712
0	C	0.379453	0.696895	0.428369
0	C	0.148635	0.334835	0.932016
0	H	0.76169	0.252533	0.0826577
0	H	0.769104	0.773442	0.586533
0	H	0.269461	0.76451	0.424387
0	H	0.261722	0.26908	0.928741
0	C	0.343184	0.101809	0.0997801
0	C	0.184171	0.930019	0.601278
0	C	0.684637	0.607703	0.409922
0	C	0.843324	0.420174	0.91172
0	H	0.410482	0.0137068	0.100051
0	H	0.115217	0.0175051	0.602212
0	H	0.615917	0.520123	0.409396
0	H	0.910132	0.508407	0.911831
0	H	0.231202	0.0983697	0.122972
0	H	0.299755	0.934046	0.623594
0	H	0.799804	0.60306	0.387525
0	H	0.731946	0.424024	0.88839
0	C	0.264308	0.126948	0.0570575
0	C	0.257636	0.906024	0.557987
0	C	0.75875	0.633284	0.453054
0	C	0.763607	0.393608	0.954258
0	H	0.23435	0.0489536	0.0381541
0	H	0.282711	0.984233	0.538902
0	H	0.784505	0.555729	0.472433
0	H	0.732763	0.47099	0.973387
0	C	0.381083	0.22557	0.0361602
0	C	0.14172	0.805743	0.53785
0	C	0.642734	0.73395	0.472936
0	C	0.880576	0.294729	0.974941
0	H	0.353768	0.236014	0.00268936
0	H	0.165693	0.795178	0.504266
0	H	0.667057	0.74545	0.506457
0	H	0.852651	0.28338	0.00838276
0	C	0.316684	0.333522	0.0627146
0	C	0.212643	0.698916	0.564157
0	C	0.712953	0.840127	0.44623
0	C	0.81724	0.187319	0.948006
0	C	0.109778	0.305652	0.0681871
0	C	0.418975	0.72976	0.568662
0	C	0.919395	0.809636	0.441772
0	C	0.610221	0.214782	0.942493
0	C	0.338897	0.44926	0.0401944
0	C	0.193011	0.582875	0.541734
0	C	0.692344	0.95685	0.468156
0	C	0.839864	0.0711453	0.970206
0	H	0.258032	0.449346	0.0112525
0	H	0.269258	0.584442	0.512206
0	H	0.768342	0.956611	0.497713
0	H	0.758789	0.0702341	0.999116
0	H	0.484486	0.464975	0.0319484
0	H	0.0472304	0.564202	0.534469
0	H	0.546409	0.975345	0.475309
0	H	0.985353	0.0555059	0.97849
0	H	0.290089	0.524294	0.0584377
0	H	0.248153	0.508854	0.559624
0	H	0.746986	0.0303715	0.449932
0	H	0.79159	0.99637	0.951732
0	O	0.71983	0.0707399	0.0784038
0	O	0.802169	0.955804	0.58228
0	O	0.302945	0.582234	0.429244
0	O	0.220716	0.450744	0.933472
0	H	0.850046	0.0735236	0.068413
0	H	0.672482	0.951075	0.571794
0	H	0.172748	0.587226	0.439365
0	H	0.351263	0.44736	0.9433
0	O	0.57481	0.206149	0.0382951
0	O	0.947913	0.823187	0.541061
0	O	0.448984	0.71613	0.469902
0	O	0.0742589	0.314667	0.973055
0	O	0.0819309	0.184388	0.0624882
0	O	0.44266	0.850948	0.562293
0	O	0.943465	0.688586	0.448409
0	O	0.581688	0.335846	0.948482
0	O	0.977028	0.365234	0.0763748
0	O	0.553411	0.671622	0.576758
0	O	0.0536351	0.86777	0.433505
0	O	0.477805	0.155064	0.934155
