#******************************************
#
# CIF file created by Zeo++
# Zeo++ is an open source package to
# analyze microporous materials
#
#*******************************************

_cell_length_a		16.4599(0)
_cell_length_b		16.5026(0)
_cell_length_c		14.1486(0)
_cell_angle_alpha		90(0)
_cell_angle_beta		90(0)
_cell_angle_gamma		120.211(0)

_symmetry_space_group_name_H-M		'P1'
_symmetry_Int_Tables_number		1
_symmetry_cell_setting		Monoclinic

loop_
_symmetry_equiv_pos_as_xyz
'+x,+y,+z'

loop_
_atom_site_label
_atom_site_type_symbol
_atom_site_fract_x
_atom_site_fract_y
_atom_site_fract_z
0	C	0.728593	0.301337	0.130685
0	C	0.702393	0.426217	0.127537
0	C	0.576716	0.274544	0.126524
0	C	0.701385	0.274415	0.37308
0	C	0.576523	0.301074	0.372649
0	C	0.728887	0.426177	0.372596
0	C	0.277516	0.700059	0.875473
0	C	0.303692	0.57517	0.878402
0	C	0.429399	0.72685	0.879367
0	C	0.304779	0.726932	0.632913
0	C	0.429648	0.700294	0.632177
0	C	0.277333	0.575171	0.632177
0	C	0.883493	0.327584	0.128211
0	C	0.676164	0.554471	0.127408
0	C	0.447987	0.1194	0.126955
0	C	0.675111	0.119557	0.376116
0	C	0.448326	0.327698	0.376049
0	C	0.88447	0.554685	0.376144
0	C	0.122603	0.673785	0.878096
0	C	0.329969	0.446936	0.878599
0	C	0.558136	0.881969	0.879037
0	C	0.330954	0.881749	0.629872
0	C	0.55789	0.673758	0.629751
0	C	0.121571	0.446813	0.630481
0	C	0.931372	0.353133	0.214009
0	C	0.650868	0.576387	0.213545
0	C	0.426065	0.0722358	0.213202
0	C	0.650165	0.0718609	0.29016
0	C	0.426195	0.353134	0.290137
0	C	0.932246	0.576854	0.290206
0	C	0.0748146	0.648254	0.792192
0	C	0.355277	0.425075	0.792449
0	C	0.580061	0.929143	0.792815
0	C	0.355914	0.929501	0.715802
0	C	0.579948	0.648308	0.715738
0	C	0.0737382	0.424405	0.71634
0	H	0.893081	0.328971	0.28107
0	H	0.674708	0.561982	0.280488
0	H	0.440014	0.110494	0.280099
0	H	0.673629	0.110187	0.223215
0	H	0.439981	0.328945	0.223109
0	H	0.893867	0.562284	0.223221
0	H	0.113133	0.672366	0.7252
0	H	0.331412	0.439419	0.725508
0	H	0.566093	0.890864	0.725913
0	H	0.332428	0.891162	0.782747
0	H	0.566135	0.672492	0.782758
0	H	0.112044	0.438847	0.783358
0	C	0.028935	0.411567	0.209369
0	C	0.592972	0.615637	0.209203
0	C	0.387748	0.975055	0.208987
0	C	0.593252	0.974396	0.294881
0	C	0.387226	0.411205	0.294811
0	C	0.0297921	0.616215	0.294878
0	C	0.977243	0.589822	0.796798
0	C	0.413142	0.385769	0.796794
0	C	0.618367	0.0263084	0.797023
0	C	0.412836	0.0269567	0.711068
0	C	0.618852	0.590173	0.711123
0	C	0.976182	0.385061	0.711508
0	C	0.077663	0.443965	0.123495
0	C	0.560874	0.632433	0.123485
0	C	0.371454	0.925995	0.123454
0	C	0.561474	0.925569	0.380786
0	C	0.370969	0.443464	0.380737
0	C	0.0786264	0.632957	0.38077
0	C	0.928419	0.557399	0.88261
0	C	0.445241	0.368954	0.882489
0	C	0.634655	0.0753819	0.882554
0	C	0.444595	0.0757534	0.625151
0	C	0.635129	0.557916	0.625221
0	C	0.927342	0.368343	0.625611
0	C	0.0244539	0.413517	0.040001
0	C	0.590935	0.609842	0.0397801
0	C	0.39391	0.978558	0.0396392
0	C	0.591166	0.97862	0.464317
0	C	0.393583	0.413214	0.464301
0	C	0.0254763	0.610155	0.464298
0	C	0.981573	0.587833	0.966153
0	C	0.415194	0.391545	0.966218
0	C	0.612191	0.0228206	0.966362
0	C	0.414859	0.0226365	0.54163
0	C	0.61256	0.588162	0.541616
0	C	0.980518	0.39134	0.542107
0	C	0.926662	0.354695	0.0399677
0	C	0.649205	0.570773	0.0394075
0	C	0.431975	0.0757909	0.0391289
0	C	0.648503	0.0764262	0.464305
0	C	0.432437	0.354765	0.464254
0	C	0.927671	0.570943	0.464296
0	C	0.0793544	0.646657	0.966186
0	C	0.356915	0.430612	0.966615
0	C	0.574138	0.925607	0.966884
0	C	0.357613	0.924949	0.541694
0	C	0.573754	0.646642	0.541596
0	C	0.0783061	0.430847	0.542382
0	H	0.885135	0.330983	0.975254
0	H	0.672531	0.552857	0.974598
0	H	0.44948	0.117046	0.974302
0	H	0.671327	0.117674	0.529343
0	H	0.450064	0.331341	0.529355
0	H	0.886349	0.553049	0.529403
0	H	0.120841	0.670396	0.0310132
0	H	0.333574	0.448497	0.0313779
0	H	0.556598	0.884314	0.0317114
0	H	0.334738	0.883626	0.476618
0	H	0.556073	0.670016	0.47649
0	H	0.120059	0.449536	0.477784
0	N	0.634161	0.236172	0.131102
0	N	0.76749	0.397391	0.132337
0	N	0.606137	0.368607	0.123012
0	N	0.767063	0.368552	0.372125
0	N	0.605126	0.235853	0.372164
0	N	0.634558	0.397117	0.370866
0	N	0.371949	0.765222	0.874987
0	N	0.238595	0.603993	0.873824
0	N	0.399965	0.632769	0.882666
0	N	0.239155	0.63279	0.633832
0	N	0.401037	0.765499	0.633976
0	N	0.371684	0.604216	0.632028
0	O	0.784451	0.263056	0.131297
0	O	0.740656	0.520384	0.130112
0	O	0.482149	0.218136	0.128063
0	O	0.739428	0.218423	0.373107
0	O	0.482071	0.263026	0.3729
0	O	0.785495	0.520425	0.372972
0	O	0.22165	0.738326	0.875011
0	O	0.265447	0.480998	0.875871
0	O	0.523966	0.783242	0.877907
0	O	0.26668	0.782877	0.633
0	O	0.524114	0.738401	0.632857
0	O	0.220546	0.480934	0.632793
0	Br	0.209654	0.525279	0.122516
0	Br	0.480604	0.683656	0.123053
0	Br	0.320801	0.794437	0.12296
0	Br	0.481531	0.793694	0.381744
0	Br	0.320432	0.524248	0.381645
0	Br	0.210641	0.684474	0.381721
0	Br	0.796435	0.476107	0.883461
0	Br	0.525428	0.317643	0.882894
0	Br	0.685273	0.206929	0.883033
0	Br	0.524555	0.207629	0.624192
0	Br	0.685578	0.477054	0.624264
0	Br	0.795326	0.316759	0.624512
0	F	0.0767628	0.437641	0.289762
0	F	0.567399	0.637396	0.289779
0	F	0.366243	0.92758	0.289511
0	F	0.568177	0.926529	0.214563
0	F	0.365268	0.436867	0.214426
0	F	0.0775894	0.638191	0.214467
0	F	0.929504	0.563803	0.716361
0	F	0.438657	0.364009	0.716189
0	F	0.639838	0.0737499	0.716478
0	F	0.437942	0.0748392	0.791378
0	F	0.640734	0.564457	0.791521
0	F	0.928246	0.36301	0.791837
0	F	0.0679877	0.442052	0.957826
0	F	0.563118	0.62545	0.957616
0	F	0.379161	0.934896	0.957671
0	F	0.563919	0.935346	0.546831
0	F	0.378352	0.440968	0.546866
0	F	0.0687239	0.625667	0.546842
0	F	0.937947	0.559246	0.0482783
0	F	0.442996	0.375891	0.0483698
0	F	0.626925	0.0665	0.0483187
0	F	0.442123	0.0659324	0.459099
0	F	0.627721	0.560293	0.459082
0	F	0.937464	0.375865	0.459464
