#******************************************
#
# CIF file created by Zeo++
# Zeo++ is an open source package to
# analyze microporous materials
#
#*******************************************

_cell_length_a		15.2297(0)
_cell_length_b		15.2541(0)
_cell_length_c		14.9331(0)
_cell_angle_alpha		108.768(0)
_cell_angle_beta		109.338(0)
_cell_angle_gamma		107.143(0)

_symmetry_space_group_name_H-M		'P1'
_symmetry_Int_Tables_number		1
_symmetry_cell_setting		Triclinic

loop_
_symmetry_equiv_pos_as_xyz
'+x,+y,+z'

loop_
_atom_site_label
_atom_site_type_symbol
_atom_site_fract_x
_atom_site_fract_y
_atom_site_fract_z
0	C	0.36131	0.994222	0.67971
0	C	0.678569	0.356407	0.997876
0	C	0.000417835	0.681732	0.360098
0	C	0.699754	0.0591865	0.381286
0	C	0.382596	0.696939	0.0632627
0	C	0.0606806	0.371796	0.700855
0	C	0.328028	0.909476	0.704629
0	C	0.70527	0.321776	0.912294
0	C	0.912561	0.704101	0.322887
0	C	0.732982	0.143882	0.356275
0	C	0.355848	0.731559	0.148812
0	C	0.148621	0.349581	0.738153
0	C	0.393717	0.87118	0.741142
0	C	0.739534	0.385283	0.872895
0	C	0.873466	0.739045	0.388278
0	C	0.667229	0.182115	0.319757
0	C	0.3215	0.668034	0.188153
0	C	0.187685	0.314595	0.67274
0	C	0.499553	0.913008	0.756464
0	C	0.751025	0.490479	0.914457
0	C	0.917421	0.754565	0.497768
0	C	0.561438	0.140323	0.304545
0	C	0.309975	0.562835	0.146598
0	C	0.143639	0.298857	0.563173
0	C	0.754751	0.125929	0.68034
0	C	0.674551	0.750983	0.134801
0	C	0.131596	0.674021	0.761499
0	C	0.306421	0.927447	0.380846
0	C	0.386583	0.302394	0.926442
0	C	0.929791	0.379748	0.299642
0	C	0.780319	0.193263	0.63798
0	C	0.633803	0.778945	0.204594
0	C	0.198658	0.630399	0.788901
0	C	0.280833	0.860014	0.423117
0	C	0.427273	0.27438	0.856605
0	C	0.862678	0.423322	0.27223
0	C	0.713014	0.233943	0.601449
0	C	0.599313	0.713523	0.245933
0	C	0.242235	0.597985	0.723337
0	C	0.348076	0.81926	0.459526
0	C	0.461656	0.339715	0.815133
0	C	0.818743	0.455329	0.337519
0	C	0.619637	0.207009	0.607003
0	C	0.604744	0.619346	0.216773
0	C	0.217554	0.607612	0.629228
0	C	0.441474	0.846258	0.454013
0	C	0.456191	0.433876	0.844241
0	C	0.843247	0.445466	0.431498
0	C	0.494604	0.112359	0.656643
0	C	0.652547	0.49111	0.117726
0	C	0.123103	0.660317	0.500276
0	C	0.566531	0.941048	0.40444
0	C	0.408402	0.562138	0.943265
0	C	0.937863	0.392955	0.560554
0	C	0.633985	0.0259779	0.730475
0	C	0.723066	0.626783	0.0301806
0	C	0.0348252	0.730338	0.638932
0	C	0.427123	0.0274153	0.330692
0	C	0.337913	0.426505	0.0308927
0	C	0.0261351	0.322912	0.421897
0	C	0.661264	0.0988581	0.686203
0	C	0.680467	0.656713	0.105614
0	C	0.107056	0.684225	0.667475
0	C	0.399881	0.954513	0.374943
0	C	0.380542	0.396573	0.955508
0	C	0.95407	0.36922	0.393477
0	C	0.593856	0.139804	0.649835
0	C	0.64578	0.591094	0.146987
0	C	0.149818	0.650721	0.601088
0	C	0.467272	0.91352	0.411247
0	C	0.415165	0.462148	0.914037
0	C	0.911099	0.402492	0.459712
0	C	0.462212	0.0330073	0.68919
0	C	0.685881	0.457271	0.037294
0	C	0.0410591	0.691101	0.464306
0	C	0.598879	0.0203864	0.371866
0	C	0.375166	0.59603	0.023783
0	C	0.0199858	0.362301	0.596588
0	C	0.53153	0.990664	0.726875
0	C	0.721582	0.524398	0.994001
0	C	0.997737	0.726889	0.533121
0	C	0.529528	0.0627006	0.334195
0	C	0.339416	0.528897	0.0670528
0	C	0.0632597	0.326488	0.527734
0	C	0.180956	0.986272	0.617926
0	C	0.62148	0.178497	0.990039
0	C	0.990068	0.619453	0.175954
0	C	0.880086	0.0670553	0.443005
0	C	0.439779	0.874834	0.0710808
0	C	0.0709754	0.43417	0.88498
0	C	0.161229	0.0459651	0.707295
0	C	0.708951	0.160433	0.0560194
0	C	0.0468666	0.701733	0.150778
0	C	0.899743	0.00741432	0.353553
0	C	0.352191	0.892813	0.00518721
0	C	0.0142972	0.351903	0.910246
0	C	0.120538	0.984789	0.512223
0	C	0.517957	0.118273	0.984337
0	C	0.987608	0.515025	0.118305
0	C	0.940501	0.0684384	0.548629
0	C	0.543203	0.935029	0.0765821
0	C	0.0732709	0.53855	0.942477
0	C	0.527607	0.773826	0.800568
0	C	0.790888	0.51332	0.769884
0	C	0.773452	0.790854	0.522728
0	C	0.533238	0.279398	0.260315
0	C	0.269961	0.539936	0.291075
0	C	0.287463	0.262364	0.538125
0	C	0.493189	0.689378	0.688857
0	C	0.681613	0.479534	0.682767
0	C	0.695918	0.681149	0.489812
0	C	0.567538	0.363915	0.37193
0	C	0.379095	0.573502	0.37825
0	C	0.365097	0.372	0.570948
0	C	0.613935	0.772454	0.888029
0	C	0.874513	0.596819	0.767966
0	C	0.768989	0.873718	0.609412
0	C	0.446888	0.280613	0.172724
0	C	0.186073	0.456512	0.292786
0	C	0.291804	0.179373	0.451457
0	N	0.294721	0.0364431	0.651206
0	N	0.64975	0.291458	0.0399227
0	N	0.0440973	0.656313	0.294147
0	N	0.766352	0.0169836	0.409799
0	N	0.411554	0.76189	0.0212725
0	N	0.0169375	0.397149	0.766752
0	N	0.566989	0.879188	0.807046
0	N	0.798067	0.55544	0.878964
0	N	0.8827	0.803122	0.565237
0	N	0.493939	0.174084	0.253958
0	N	0.262866	0.497866	0.182031
0	N	0.178268	0.250212	0.495697
0	O	0.442864	0.158557	0.634401
0	O	0.629714	0.440381	0.163783
0	O	0.171239	0.641283	0.450121
0	O	0.618325	0.894936	0.426818
0	O	0.431085	0.612771	0.897072
0	O	0.889726	0.412063	0.610676
0	O	0.698185	0.996927	0.767855
0	O	0.757529	0.68892	0.999911
0	O	0.00759202	0.768424	0.7046
0	O	0.362845	0.0563871	0.293301
0	O	0.303301	0.36434	0.0610654
0	O	0.0532043	0.284649	0.356125
0	H	0.248241	0.8772	0.693014
0	H	0.696634	0.242477	0.880139
0	H	0.878789	0.692155	0.240189
0	H	0.812745	0.17614	0.367808
0	H	0.364473	0.810846	0.180997
0	H	0.182483	0.361686	0.820927
0	H	0.368172	0.807362	0.760023
0	H	0.759698	0.358426	0.808425
0	H	0.807692	0.756608	0.359872
0	H	0.692695	0.245862	0.300746
0	H	0.301231	0.69487	0.252542
0	H	0.253485	0.297101	0.701221
0	H	0.80672	0.0934836	0.709025
0	H	0.701958	0.801669	0.10212
0	H	0.0974282	0.700486	0.812298
0	H	0.254421	0.959887	0.352233
0	H	0.359243	0.251727	0.959177
0	H	0.96414	0.353525	0.248964
0	H	0.852927	0.214045	0.632893
0	H	0.627979	0.851807	0.226691
0	H	0.217222	0.621583	0.86172
0	H	0.208227	0.83918	0.428199
0	H	0.433079	0.201514	0.834543
0	H	0.84426	0.432281	0.199475
0	H	0.733942	0.286546	0.56826
0	H	0.568	0.736599	0.301028
0	H	0.295945	0.565221	0.746136
0	H	0.327099	0.766552	0.492601
0	H	0.492861	0.316567	0.759948
0	H	0.764867	0.487897	0.314618
0	H	0.565711	0.237309	0.577779
0	H	0.576786	0.566647	0.247211
0	H	0.250122	0.581424	0.576679
0	H	0.4954	0.815923	0.483172
0	H	0.484062	0.486515	0.813702
0	H	0.810411	0.471344	0.483866
0	H	0.319613	0.0951258	0.631008
0	H	0.629514	0.318016	0.0999696
0	H	0.105359	0.638509	0.322182
0	H	0.741512	0.958293	0.430019
0	H	0.431585	0.735248	0.961085
0	H	0.955575	0.414848	0.73861
0	H	0.63986	0.905815	0.810004
0	H	0.798432	0.627789	0.905398
0	H	0.912888	0.80808	0.641444
0	H	0.421111	0.147467	0.251057
0	H	0.262432	0.425485	0.15555
0	H	0.147982	0.245077	0.419427
0	H	0.156016	0.904	0.604839
0	H	0.611635	0.152078	0.906125
0	H	0.907395	0.60834	0.149621
0	H	0.905118	0.149464	0.456238
0	H	0.449733	0.901286	0.155037
0	H	0.153681	0.445402	0.91136
0	H	0.45855	0.760338	0.816246
0	H	0.807008	0.443924	0.755943
0	H	0.754496	0.804232	0.450191
0	H	0.602334	0.292929	0.244691
0	H	0.253985	0.609418	0.305091
0	H	0.306419	0.249043	0.610714
0	H	0.204989	0.046757	0.78276
0	H	0.782851	0.201768	0.0585887
0	H	0.0480037	0.776116	0.192639
0	H	0.855799	0.00647869	0.278057
0	H	0.278399	0.851547	0.00283397
0	H	0.0130186	0.277473	0.868241
0	H	0.183713	0.126954	0.72398
0	H	0.723379	0.186065	0.139223
0	H	0.12795	0.71624	0.17388
0	H	0.877421	0.926478	0.336964
0	H	0.337587	0.867079	0.921923
0	H	0.933264	0.337491	0.887361
0	H	0.0783794	0.00973901	0.685955
0	H	0.689571	0.0776513	0.0207506
0	H	0.00731716	0.677872	0.0645516
0	H	0.982555	0.0437625	0.374765
0	H	0.371539	0.975593	0.0403925
0	H	0.0540186	0.375745	0.996456
0	H	0.136969	0.0629586	0.520526
0	H	0.522886	0.136959	0.0638325
0	H	0.0656379	0.521141	0.134869
0	H	0.924102	0.990224	0.540187
0	H	0.5381	0.916358	0.997025
0	H	0.995222	0.53228	0.926073
0	H	0.138239	0.945721	0.449703
0	H	0.455563	0.132886	0.939347
0	H	0.951171	0.457751	0.140509
0	H	0.922699	0.107326	0.611138
0	H	0.605624	0.920349	0.121407
0	H	0.109375	0.595697	0.919966
0	H	0.036226	0.942512	0.481842
0	H	0.492663	0.0344462	0.943105
0	H	0.941771	0.482504	0.0310674
0	H	0.024823	0.110815	0.57909
0	H	0.568539	0.0188566	0.117886
0	H	0.11932	0.571299	0.029725
0	H	0.466944	0.612723	0.685563
0	H	0.677288	0.450834	0.603189
0	H	0.616242	0.672868	0.460769
0	H	0.594	0.440578	0.375238
0	H	0.383378	0.602405	0.457801
0	H	0.444793	0.380275	0.600374
0	H	0.428723	0.68781	0.626281
0	H	0.621817	0.417274	0.681662
0	H	0.697538	0.622191	0.425594
0	H	0.631805	0.365388	0.434643
0	H	0.438939	0.635507	0.379305
0	H	0.36324	0.430944	0.634825
0	H	0.556967	0.700711	0.668222
0	H	0.660876	0.543844	0.694373
0	H	0.712682	0.662974	0.557055
0	H	0.503662	0.352734	0.392385
0	H	0.399541	0.50899	0.366764
0	H	0.348614	0.389904	0.503527
0	H	0.649571	0.841132	0.965633
0	H	0.950033	0.633709	0.839768
0	H	0.835593	0.949822	0.64659
0	H	0.4114	0.211945	0.0951483
0	H	0.110739	0.419523	0.220741
0	H	0.225256	0.103231	0.414488
0	H	0.58239	0.704155	0.899414
0	H	0.88647	0.562297	0.698486
0	H	0.698447	0.88331	0.574628
0	H	0.478399	0.348933	0.161333
0	H	0.17381	0.49112	0.362003
0	H	0.362462	0.169965	0.486184
0	H	0.677337	0.768695	0.87001
0	H	0.854841	0.659062	0.762195
0	H	0.767396	0.855706	0.674384
0	H	0.383388	0.284249	0.190603
0	H	0.205697	0.394349	0.29891
0	H	0.293075	0.197123	0.386255
