#******************************************
#
# CIF file created by Zeo++
# Zeo++ is an open source package to
# analyze microporous materials
#
#*******************************************

_cell_length_a		14.31(0)
_cell_length_b		14.5429(0)
_cell_length_c		9.45508(0)
_cell_angle_alpha		90(0)
_cell_angle_beta		90(0)
_cell_angle_gamma		121.164(0)

_symmetry_space_group_name_H-M		'P1'
_symmetry_Int_Tables_number		1
_symmetry_cell_setting		Monoclinic

loop_
_symmetry_equiv_pos_as_xyz
'+x,+y,+z'

loop_
_atom_site_label
_atom_site_type_symbol
_atom_site_fract_x
_atom_site_fract_y
_atom_site_fract_z
0	C	0.518876	0.248591	0.0150356
0	C	0.787452	0.274359	0.348662
0	C	0.768678	0.516945	0.679278
0	C	0.536898	0.778425	0.515635
0	C	0.268455	0.752544	0.849994
0	C	0.287108	0.510013	0.177183
0	H	0.523845	0.202567	0.109563
0	H	0.836678	0.326038	0.442738
0	H	0.716184	0.511148	0.773942
0	H	0.531677	0.82439	0.610141
0	H	0.220478	0.699951	0.944183
0	H	0.338465	0.51356	0.271961
0	N	0.574972	0.366871	0.0522748
0	N	0.6677	0.210336	0.38854
0	N	0.830784	0.461714	0.716162
0	N	0.480353	0.660048	0.552565
0	N	0.388428	0.818086	0.888515
0	N	0.226295	0.566353	0.215108
0	H	0.649108	0.391685	0.102668
0	H	0.644908	0.259393	0.439053
0	H	0.778654	0.387905	0.764076
0	H	0.405856	0.635404	0.601928
0	H	0.412562	0.76969	0.937922
0	H	0.278858	0.639707	0.264046
0	H	0.526684	0.384784	0.119571
0	H	0.648422	0.144071	0.456132
0	H	0.897658	0.508194	0.785702
0	H	0.527998	0.641847	0.620669
0	H	0.407187	0.883804	0.956849
0	H	0.158992	0.519852	0.284112
0	H	0.592613	0.413852	0.959392
0	H	0.618451	0.179069	0.296679
0	H	0.862229	0.446174	0.623828
0	H	0.463453	0.613203	0.459561
0	H	0.436883	0.850008	0.796194
0	H	0.195448	0.583042	0.123004
0	C	0.397009	0.201549	0.976623
0	C	0.830934	0.199973	0.307238
0	C	0.846224	0.637208	0.642208
0	C	0.658781	0.825187	0.47782
0	C	0.222344	0.825162	0.811223
0	C	0.20775	0.390649	0.137228
0	H	0.367467	0.120302	0.928749
0	H	0.912564	0.252906	0.255885
0	H	0.793615	0.66546	0.594138
0	H	0.688578	0.906529	0.430163
0	H	0.140518	0.77119	0.760862
0	H	0.259241	0.36116	0.0888761
0	C	0.33134	0.186622	0.111212
0	C	0.848142	0.151028	0.440716
0	C	0.897489	0.701668	0.777441
0	C	0.723878	0.839716	0.612922
0	C	0.204964	0.872535	0.946015
0	C	0.153946	0.324921	0.270819
0	H	0.341386	0.135878	0.188446
0	H	0.902217	0.213696	0.516201
0	H	0.834509	0.689055	0.854851
0	H	0.713187	0.889894	0.690385
0	H	0.153165	0.809016	0.0220287
0	H	0.215303	0.334006	0.348539
0	H	0.243981	0.148053	0.0879105
0	H	0.885317	0.103492	0.415222
0	H	0.946319	0.787928	0.75504
0	H	0.811377	0.878627	0.590298
0	H	0.165072	0.917912	0.922738
0	H	0.102758	0.239203	0.246122
0	H	0.355996	0.263746	0.162911
0	H	0.770764	0.0970253	0.495612
0	H	0.9522	0.679534	0.828695
0	H	0.699205	0.76228	0.663974
0	H	0.282541	0.928111	0.999557
0	H	0.100788	0.348859	0.32259
0	C	0.382216	0.271466	0.868954
0	C	0.755627	0.112964	0.202305
0	C	0.933564	0.653323	0.535237
0	C	0.673884	0.755487	0.370153
0	C	0.295702	0.913131	0.706089
0	C	0.122127	0.377897	0.0295506
0	H	0.301148	0.227442	0.820296
0	H	0.797208	0.0760656	0.151581
0	H	0.97304	0.733758	0.488478
0	H	0.754825	0.800043	0.321109
0	H	0.252574	0.949135	0.657461
0	H	0.082007	0.298198	0.980359
0	H	0.442972	0.298613	0.783397
0	H	0.727716	0.14507	0.117681
0	H	0.899257	0.594854	0.448203
0	H	0.612923	0.727772	0.284867
0	H	0.323562	0.882125	0.620006
0	H	0.158167	0.437784	0.944222
0	H	0.390125	0.343909	0.916928
0	H	0.682034	0.0474463	0.25274
0	H	0.998703	0.645063	0.583237
0	H	0.666769	0.683396	0.418132
0	H	0.369268	0.979016	0.756056
0	H	0.0571617	0.386565	0.0773085
0	C	0.584781	0.24267	0.890695
0	C	0.794972	0.346874	0.225527
0	C	0.694556	0.452722	0.554616
0	C	0.471454	0.784801	0.391062
0	C	0.261233	0.681186	0.725632
0	C	0.362623	0.575164	0.0540036
0	O	0.630842	0.320555	0.808455
0	O	0.714887	0.314492	0.145565
0	O	0.724964	0.406035	0.473272
0	O	0.4252	0.706779	0.309051
0	O	0.341057	0.714364	0.644977
0	O	0.333269	0.623059	0.97321
0	N	0.590785	0.152855	0.874595
0	N	0.888723	0.443595	0.207973
0	N	0.598093	0.448842	0.538168
0	N	0.465992	0.87486	0.37471
0	N	0.167836	0.58419	0.707636
0	N	0.458888	0.578595	0.0381871
0	H	0.553093	0.0887673	0.947149
0	H	0.954764	0.469291	0.278128
0	H	0.574509	0.489022	0.609112
0	H	0.503904	0.938954	0.447333
0	H	0.101475	0.557862	0.777347
0	H	0.48167	0.537534	0.108845
0	C	0.665043	0.150267	0.766962
0	C	0.895942	0.521343	0.100236
0	C	0.516679	0.376106	0.432262
0	C	0.391027	0.877551	0.268295
0	C	0.161346	0.507946	0.597999
0	C	0.541006	0.651487	0.93302
0	H	0.681584	0.212147	0.683774
0	H	0.829647	0.476918	0.0197521
0	H	0.559296	0.353784	0.351613
0	H	0.373305	0.815392	0.18501
0	H	0.227153	0.553932	0.517279
0	H	0.49924	0.675131	0.852807
0	C	0.605291	0.0372515	0.696417
0	C	0.00879271	0.569832	0.0257104
0	C	0.468949	0.438048	0.356896
0	C	0.451058	0.990515	0.197653
0	C	0.0482068	0.458598	0.524301
0	C	0.587671	0.588819	0.857123
0	O	0.573214	0.955083	0.769325
0	O	0.0945246	0.618519	0.0961195
0	O	0.42415	0.47701	0.426906
0	O	0.482937	0.0725147	0.270908
0	O	0.962751	0.410383	0.595187
0	O	0.632491	0.549861	0.927187
0	O	0.596191	0.0376424	0.563621
0	O	0.00553168	0.558468	0.893104
0	O	0.47571	0.440663	0.223575
0	O	0.460816	0.990312	0.0650058
0	O	0.0511494	0.468984	0.391509
0	O	0.579915	0.585568	0.72395
0	C	0.772809	0.17377	0.831707
0	C	0.884302	0.610625	0.166046
0	C	0.42479	0.274565	0.501166
0	C	0.284273	0.855018	0.335285
0	C	0.17503	0.419139	0.66099
0	C	0.633678	0.751968	0.00279013
0	H	0.805265	0.241109	0.906727
0	H	0.814817	0.578499	0.23941
0	H	0.456881	0.237225	0.571662
0	H	0.251928	0.787317	0.409859
0	H	0.245075	0.451508	0.733524
0	H	0.602398	0.790682	0.0720766
0	H	0.835278	0.195766	0.74971
0	H	0.87027	0.655956	0.0845242
0	H	0.374347	0.214341	0.421222
0	H	0.2211	0.834041	0.254514
0	H	0.189375	0.375109	0.577853
0	H	0.685898	0.811596	0.923286
0	H	0.763606	0.103772	0.889003
0	H	0.958074	0.66778	0.225061
0	H	0.370946	0.291658	0.564047
0	H	0.295009	0.925122	0.393865
0	H	0.102059	0.360841	0.720344
0	H	0.685639	0.73308	0.0669937
