#******************************************
#
# CIF file created by Zeo++
# Zeo++ is an open source package to
# analyze microporous materials
#
#*******************************************

_cell_length_a		10.7626(0)
_cell_length_b		10.7626(0)
_cell_length_c		29.5366(0)
_cell_angle_alpha		90(0)
_cell_angle_beta		90(0)
_cell_angle_gamma		120(0)

_symmetry_space_group_name_H-M		'P1'
_symmetry_Int_Tables_number		1
_symmetry_cell_setting		Monoclinic

loop_
_symmetry_equiv_pos_as_xyz
'+x,+y,+z'

loop_
_atom_site_label
_atom_site_type_symbol
_atom_site_fract_x
_atom_site_fract_y
_atom_site_fract_z
0	N	0.849801	0.4325	0.0646202
0	N	0.5675	0.4173	0.0646202
0	N	0.582701	0.1502	0.0646202
0	N	0.150199	0.5675	0.935378
0	N	0.4325	0.582699	0.935378
0	N	0.4173	0.8498	0.935378
0	N	0.516466	0.765833	0.397954
0	N	0.234167	0.750633	0.397954
0	N	0.249366	0.483533	0.397954
0	N	0.816866	0.900832	0.268713
0	N	0.0991664	0.916033	0.268713
0	N	0.0839667	0.183133	0.268713
0	N	0.183134	0.0991666	0.731286
0	N	0.900833	0.0839665	0.731286
0	N	0.916034	0.816867	0.731286
0	N	0.483533	0.234166	0.602046
0	N	0.765833	0.249367	0.602046
0	N	0.750633	0.516466	0.602046
0	N	0.0730801	0.44664	0.04441
0	N	0.55336	0.62644	0.04441
0	N	0.37356	0.92692	0.04441
0	N	0.926919	0.553359	0.955591
0	N	0.44664	0.37356	0.955591
0	N	0.62644	0.07308	0.955591
0	N	0.739747	0.779973	0.377745
0	N	0.220026	0.959772	0.377745
0	N	0.0402267	0.260253	0.377745
0	N	0.593586	0.886693	0.288923
0	N	0.113307	0.706893	0.288923
0	N	0.293106	0.406413	0.288923
0	N	0.406414	0.113307	0.711077
0	N	0.886693	0.293106	0.711077
0	N	0.706893	0.593586	0.711077
0	N	0.260253	0.220027	0.622255
0	N	0.779973	0.0402266	0.622255
0	N	0.959774	0.739747	0.622255
0	H	0.87992	0.525729	0.0460601
0	H	0.47427	0.354189	0.0460601
0	H	0.64581	0.12008	0.0460601
0	H	0.120079	0.47427	0.953939
0	H	0.525729	0.645809	0.953939
0	H	0.35419	0.87992	0.953939
0	H	0.546587	0.859063	0.379394
0	H	0.140937	0.687523	0.379394
0	H	0.312476	0.453413	0.379394
0	H	0.786746	0.807603	0.287273
0	H	0.192396	0.979143	0.287273
0	H	0.0208567	0.213254	0.287273
0	H	0.213254	0.192397	0.712726
0	H	0.807604	0.0208566	0.712726
0	H	0.979143	0.786746	0.712726
0	H	0.453413	0.140937	0.620606
0	H	0.859063	0.312477	0.620606
0	H	0.687523	0.546586	0.620606
0	C	0.9512	0.38404	0.06979
0	C	0.61596	0.56716	0.06979
0	C	0.43284	0.0487999	0.06979
0	C	0.0487999	0.61596	0.930209
0	C	0.38404	0.43284	0.930209
0	C	0.56716	0.9512	0.930209
0	C	0.617866	0.717373	0.403124
0	C	0.282626	0.900492	0.403124
0	C	0.0995063	0.382133	0.403124
0	C	0.715466	0.949292	0.263543
0	C	0.0507067	0.766173	0.263543
0	C	0.233827	0.284534	0.263543
0	C	0.284533	0.0507065	0.736456
0	C	0.949293	0.233826	0.736456
0	C	0.766174	0.715466	0.736456
0	C	0.382133	0.282626	0.596876
0	C	0.717374	0.0995066	0.596876
0	C	0.900493	0.617866	0.596876
0	C	0.9284	0.27404	0.10016
0	C	0.72596	0.654359	0.10016
0	C	0.34564	0.0716	0.10016
0	C	0.0715992	0.725959	0.89984
0	C	0.27404	0.34564	0.89984
0	C	0.65436	0.928399	0.89984
0	C	0.595067	0.607373	0.433493
0	C	0.392627	0.987693	0.433493
0	C	0.0123064	0.404934	0.433493
0	C	0.738266	0.0592932	0.233173
0	C	0.940707	0.678973	0.233173
0	C	0.321027	0.261733	0.233173
0	C	0.261733	0.940706	0.766828
0	C	0.0592934	0.321027	0.766828
0	C	0.678973	0.738266	0.766828
0	C	0.404933	0.392627	0.566507
0	C	0.607373	0.0123067	0.566507
0	C	0.987694	0.595066	0.566507
0	H	0.83396	0.22234	0.12132
0	H	0.77766	0.61162	0.12132
0	H	0.38838	0.16604	0.12132
0	H	0.16604	0.777659	0.878679
0	H	0.22234	0.38838	0.878679
0	H	0.61162	0.83396	0.878679
0	H	0.500627	0.555673	0.454653
0	H	0.444326	0.944953	0.454653
0	H	0.0550467	0.499373	0.454653
0	H	0.832706	0.110993	0.212013
0	H	0.889007	0.721713	0.212013
0	H	0.278286	0.167293	0.212013
0	H	0.167293	0.889006	0.787985
0	H	0.110993	0.278286	0.787985
0	H	0.721714	0.832707	0.787985
0	H	0.499373	0.444327	0.545347
0	H	0.555674	0.0550467	0.545347
0	H	0.944953	0.500626	0.545347
0	C	0.03037	0.23041	0.10327
0	C	0.76959	0.79996	0.10327
0	C	0.20004	0.96963	0.10327
0	C	0.96963	0.76959	0.896732
0	C	0.23041	0.20004	0.896732
0	C	0.79996	0.03037	0.896732
0	C	0.697036	0.563743	0.436604
0	C	0.436256	0.133294	0.436604
0	C	0.866707	0.302964	0.436604
0	C	0.636297	0.102923	0.230063
0	C	0.897077	0.533374	0.230063
0	C	0.466626	0.363703	0.230063
0	C	0.363703	0.897076	0.769936
0	C	0.102923	0.466626	0.769936
0	C	0.533373	0.636296	0.769936
0	C	0.302963	0.436256	0.563396
0	C	0.563744	0.866706	0.563396
0	C	0.133293	0.697036	0.563396
0	H	0.0136699	0.14563	0.12633
0	H	0.85437	0.86804	0.12633
0	H	0.13196	0.986329	0.12633
0	H	0.986329	0.854369	0.873669
0	H	0.14563	0.13196	0.873669
0	H	0.86804	0.01367	0.873669
0	H	0.680337	0.478963	0.459664
0	H	0.521037	0.201374	0.459664
0	H	0.798626	0.319663	0.459664
0	H	0.652996	0.187703	0.207003
0	H	0.812296	0.465293	0.207003
0	H	0.534706	0.347003	0.207003
0	H	0.347003	0.812296	0.792996
0	H	0.187703	0.534706	0.792996
0	H	0.465294	0.652997	0.792996
0	H	0.319663	0.521037	0.540336
0	H	0.478963	0.798626	0.540336
0	H	0.201372	0.680336	0.540336
0	C	0.15352	0.29595	0.07652
0	C	0.70405	0.85757	0.07652
0	C	0.142429	0.846479	0.07652
0	C	0.84648	0.70405	0.923481
0	C	0.29595	0.14243	0.923481
0	C	0.85757	0.15352	0.923481
0	C	0.820187	0.629283	0.409854
0	C	0.370717	0.190903	0.409854
0	C	0.809096	0.179813	0.409854
0	C	0.513147	0.0373833	0.256813
0	C	0.962616	0.475763	0.256813
0	C	0.524237	0.486853	0.256813
0	C	0.486853	0.962617	0.743186
0	C	0.0373832	0.524236	0.743186
0	C	0.475763	0.513147	0.743186
0	C	0.179813	0.370716	0.590146
0	C	0.629283	0.809096	0.590146
0	C	0.190903	0.820186	0.590146
0	H	0.23266	0.26241	0.0787
0	H	0.73759	0.970249	0.0787
0	H	0.0297495	0.767339	0.0787
0	H	0.76734	0.737589	0.921301
0	H	0.26241	0.0297499	0.921301
0	H	0.97025	0.23266	0.921301
0	H	0.899327	0.595743	0.412035
0	H	0.404256	0.303583	0.412035
0	H	0.696417	0.100673	0.412035
0	H	0.434007	0.0709233	0.254633
0	H	0.929077	0.363084	0.254633
0	H	0.636917	0.565994	0.254633
0	H	0.565993	0.929076	0.745367
0	H	0.0709232	0.636916	0.745367
0	H	0.363083	0.434006	0.745367
0	H	0.100673	0.404257	0.587965
0	H	0.595743	0.696416	0.587965
0	H	0.303583	0.899326	0.587965
0	C	0.17335	0.40538	0.04696
0	C	0.59462	0.76797	0.04696
0	C	0.232029	0.826649	0.04696
0	C	0.82665	0.59462	0.953041
0	C	0.40538	0.23203	0.953041
0	C	0.76797	0.17335	0.953041
0	C	0.840017	0.738712	0.380294
0	C	0.261287	0.101303	0.380294
0	C	0.898696	0.159983	0.380294
0	C	0.493316	0.927953	0.286374
0	C	0.0720463	0.565363	0.286374
0	C	0.434637	0.506684	0.286374
0	C	0.506684	0.0720466	0.713626
0	C	0.927953	0.434636	0.713626
0	C	0.565363	0.493316	0.713626
0	C	0.159983	0.261286	0.619706
0	C	0.738713	0.898696	0.619706
0	C	0.101303	0.840016	0.619706
0	H	0.26786	0.45706	0.02582
0	H	0.54294	0.810799	0.02582
0	H	0.1892	0.73214	0.02582
0	H	0.73214	0.542939	0.974181
0	H	0.45706	0.1892	0.974181
0	H	0.8108	0.26786	0.974181
0	H	0.934526	0.790393	0.359154
0	H	0.209607	0.144133	0.359154
0	H	0.855867	0.0654733	0.359154
0	H	0.398807	0.876273	0.307513
0	H	0.123726	0.522533	0.307513
0	H	0.477466	0.601193	0.307513
0	H	0.601193	0.123727	0.692487
0	H	0.876274	0.477467	0.692487
0	H	0.522533	0.398806	0.692487
0	H	0.0654734	0.209607	0.640846
0	H	0.790393	0.855866	0.640846
0	H	0.144133	0.934526	0.640846
0	P	0.666669	0.333329	0.0838201
0	P	0.33333	0.66667	0.916179
0	P	0.333337	0.666663	0.417154
0	P	0.999992	3.32808e-06	0.249513
0	P	0.999996	0.999992	0.249513
0	P	6.67602e-06	3.33774e-06	0.249513
0	P	2.49995e-06	0.999996	0.750486
0	P	3.32752e-06	6.67547e-06	0.750486
0	P	0.999993	0.999996	0.750486
0	P	0.666664	0.333337	0.582846
0	O	0.666669	0.333329	0.13624
0	O	0.33333	0.66667	0.863759
0	O	0.333337	0.666663	0.469573
0	O	0.999992	3.32808e-06	0.197093
0	O	0.999996	0.999992	0.197093
0	O	6.67602e-06	3.33774e-06	0.197093
0	O	2.49995e-06	0.999996	0.802906
0	O	3.32752e-06	6.67547e-06	0.802906
0	O	0.999993	0.999996	0.802906
0	O	0.666664	0.333337	0.530427
