#******************************************
#
# CIF file created by Zeo++
# Zeo++ is an open source package to
# analyze microporous materials
#
#*******************************************

_cell_length_a		8.99317(0)
_cell_length_b		12.0339(0)
_cell_length_c		12.4208(0)
_cell_angle_alpha		110.702(0)
_cell_angle_beta		100.569(0)
_cell_angle_gamma		101.918(0)

_symmetry_space_group_name_H-M		'P1'
_symmetry_Int_Tables_number		1
_symmetry_cell_setting		Triclinic

loop_
_symmetry_equiv_pos_as_xyz
'+x,+y,+z'

loop_
_atom_site_label
_atom_site_type_symbol
_atom_site_fract_x
_atom_site_fract_y
_atom_site_fract_z
0	O	0.0154797	0.816946	0.421661
0	O	0.100739	0.156112	0.594729
0	O	0.983843	0.802912	0.23575
0	O	0.12962	0.169125	0.780109
0	O	0.203238	0.273829	0.128709
0	O	0.910273	0.697844	0.886183
0	O	0.118639	0.169703	0.280394
0	O	0.995132	0.802097	0.734683
0	O	0.689914	0.737066	0.491071
0	O	0.423233	0.234327	0.523629
0	O	0.568409	0.619368	0.585993
0	O	0.544921	0.352133	0.428903
0	C	0.324552	0.147047	0.941418
0	C	0.789091	0.824682	0.0735581
0	H	0.294286	0.233279	0.943777
0	H	0.819629	0.73858	0.0713392
0	C	0.0364943	0.774128	0.321009
0	C	0.0780191	0.198249	0.694852
0	C	0.125889	0.677927	0.29404
0	C	0.988079	0.294079	0.721369
0	C	0.128991	0.616067	0.175986
0	C	0.985098	0.35627	0.839394
0	H	0.0712996	0.641579	0.106395
0	H	0.043057	0.331183	0.909225
0	C	0.202143	0.522067	0.147784
0	C	0.91168	0.450112	0.867361
0	H	0.201654	0.47212	0.0553684
0	H	0.912116	0.500221	0.959739
0	C	0.271621	0.4889	0.237986
0	C	0.841954	0.48282	0.776899
0	C	0.271779	0.552795	0.356809
0	C	0.841563	0.418558	0.658082
0	H	0.326208	0.527937	0.42743
0	H	0.786729	0.443037	0.587298
0	C	0.199443	0.64757	0.384715
0	C	0.914118	0.323905	0.630425
0	H	0.197678	0.697498	0.476832
0	H	0.915916	0.273766	0.538357
0	C	0.341179	0.38235	0.205597
0	C	0.772382	0.58936	0.809088
0	H	0.423626	0.389518	0.150924
0	H	0.689664	0.582107	0.863538
0	H	0.398773	0.367396	0.283808
0	H	0.715102	0.604317	0.730796
0	C	0.226783	0.161359	0.120042
0	C	0.886732	0.810327	0.894886
0	C	0.177512	0.104121	0.193397
0	C	0.935946	0.867555	0.821496
0	C	0.188158	0.981617	0.172322
0	C	0.925112	0.989999	0.842488
0	H	0.140261	0.933803	0.226312
0	H	0.973016	0.0378527	0.788526
0	C	0.251426	0.921404	0.0847679
0	C	0.861683	0.0501526	0.929952
0	H	0.256263	0.826974	0.068387
0	H	0.856623	0.144514	0.946208
0	C	0.305333	0.978707	0.010334
0	C	0.807901	0.992864	0.00443523
0	C	0.28815	0.0977614	0.0256404
0	C	0.825337	0.873893	0.989244
0	C	0.372128	0.919535	0.918383
0	C	0.741001	0.0519662	0.0963299
0	H	0.388271	0.828924	0.908124
0	H	0.724636	0.142495	0.106502
0	C	0.41239	0.971842	0.841199
0	C	0.700819	0.999658	0.173543
0	N	0.384477	0.086839	0.853656
0	N	0.728924	0.884765	0.161194
0	C	0.411153	0.136408	0.761404
0	C	0.70208	0.835129	0.253371
0	H	0.412126	0.23556	0.793645
0	H	0.701064	0.735967	0.221096
0	H	0.302457	0.0878605	0.680506
0	H	0.810651	0.883702	0.334322
0	C	0.562103	0.117895	0.728714
0	C	0.550942	0.853522	0.285815
0	H	0.670169	0.179062	0.803705
0	H	0.443083	0.792392	0.210624
0	H	0.573771	0.15022	0.655828
0	H	0.538909	0.820992	0.358516
0	C	0.560088	0.984557	0.691974
0	C	0.552886	0.986845	0.322618
0	C	0.483748	0.914089	0.746233
0	C	0.629367	0.05738	0.268457
0	C	0.476742	0.786692	0.713845
0	C	0.636551	0.184813	0.300955
0	H	0.414064	0.73107	0.753424
0	H	0.699424	0.240462	0.261489
0	C	0.552191	0.738474	0.630109
0	C	0.56091	0.232961	0.384582
0	C	0.629426	0.810085	0.574578
0	C	0.483495	0.161275	0.439961
0	C	0.63651	0.93291	0.604616
0	C	0.476268	0.0384087	0.409841
0	H	0.700257	0.98854	0.565229
0	H	0.412251	0.982758	0.449096
0	C	0.674093	0.621135	0.508313
0	C	0.438859	0.350192	0.506315
0	H	0.791717	0.624531	0.557371
0	H	0.321242	0.346563	0.457013
0	H	0.614741	0.543055	0.420965
0	H	0.497821	0.428351	0.593666
0	C	0.0660366	0.112913	0.358878
0	C	0.0470737	0.85869	0.655868
0	H	0.0182097	0.0111583	0.314517
0	H	0.0955873	0.960391	0.700296
0	H	0.975619	0.156899	0.38513
0	H	0.136835	0.814218	0.628921
0	H	0.167021	0.140077	0.437819
0	H	0.945658	0.831945	0.577385
