#******************************************
#
# CIF file created by Zeo++
# Zeo++ is an open source package to
# analyze microporous materials
#
#*******************************************

_cell_length_a		9.1165(0)
_cell_length_b		9.36287(0)
_cell_length_c		10.1188(0)
_cell_angle_alpha		69.8483(0)
_cell_angle_beta		78.949(0)
_cell_angle_gamma		69.1189(0)

_symmetry_space_group_name_H-M		'P1'
_symmetry_Int_Tables_number		1
_symmetry_cell_setting		Triclinic

loop_
_symmetry_equiv_pos_as_xyz
'+x,+y,+z'

loop_
_atom_site_label
_atom_site_type_symbol
_atom_site_fract_x
_atom_site_fract_y
_atom_site_fract_z
0	C	0.961638	0.738109	0.554568
0	C	0.103663	0.164716	0.493959
0	H	0.00452521	0.606794	0.589826
0	H	0.0611407	0.29599	0.458746
0	H	0.903961	0.776328	0.647794
0	H	0.161395	0.126406	0.400792
0	H	0.0633175	0.782008	0.519048
0	H	0.00179466	0.12111	0.52928
0	C	0.708411	0.73635	0.492852
0	C	0.356853	0.16565	0.556263
0	H	0.62145	0.784799	0.414401
0	H	0.443862	0.116729	0.634767
0	H	0.646657	0.76719	0.588473
0	H	0.418553	0.135008	0.460573
0	H	0.748426	0.605861	0.518548
0	H	0.317132	0.296097	0.530843
0	C	0.846903	0.804708	0.438274
0	C	0.218131	0.0976173	0.610573
0	C	0.784739	0.98891	0.402154
0	C	0.279951	0.913418	0.646526
0	H	0.878075	0.0423127	0.349217
0	H	0.186348	0.860244	0.699105
0	H	0.737924	0.0266622	0.497004
0	H	0.326896	0.875807	0.551667
0	H	0.689014	0.0412356	0.331631
0	H	0.375407	0.860746	0.717342
0	C	0.928351	0.760493	0.304055
0	C	0.136476	0.141805	0.744733
0	C	0.081957	0.657	0.29856
0	C	0.982746	0.245061	0.75012
0	H	0.145794	0.59604	0.393754
0	H	0.918795	0.305868	0.654977
0	C	0.846384	0.828829	0.180747
0	C	0.218391	0.0735545	0.868089
0	H	0.723379	0.905846	0.184847
0	H	0.341412	0.996535	0.864039
0	C	0.159576	0.629426	0.171115
0	C	0.90508	0.272934	0.877515
0	C	0.0782404	0.706672	0.0482941
0	C	0.986377	0.195803	0.00035322
0	C	0.918138	0.802389	0.0531684
0	C	0.146477	0.100039	0.995605
0	C	0.32652	0.521797	0.169194
0	C	0.738145	0.380692	0.879319
0	H	0.400408	0.579566	0.0791806
0	H	0.66417	0.322847	0.969191
0	H	0.381866	0.499241	0.267091
0	H	0.682912	0.403346	0.781319
0	C	0.828089	0.871246	0.923644
0	C	0.236374	0.0312045	0.125227
0	H	0.731135	0.983732	0.927884
0	H	0.333144	0.918555	0.121138
0	H	0.907465	0.90597	0.827963
0	H	0.156939	0.996695	0.220913
0	C	0.762851	0.752406	0.91078
0	C	0.301752	0.14996	0.138037
0	C	0.843213	0.596848	0.899796
0	C	0.221446	0.30555	0.148952
0	H	0.967647	0.532854	0.896931
0	H	0.0969979	0.369598	0.151787
0	N	0.601799	0.779174	0.909189
0	N	0.462796	0.123183	0.139606
0	N	0.581881	0.652142	0.897968
0	N	0.482774	0.250204	0.150759
0	N	0.725443	0.538071	0.892503
0	N	0.339233	0.364308	0.156209
0	O	0.145145	0.691275	0.917948
0	O	0.919406	0.211428	0.130667
0	H	0.262775	0.654323	0.913195
0	H	0.801984	0.248003	0.135332
