#******************************************
#
# CIF file created by Zeo++
# Zeo++ is an open source package to
# analyze microporous materials
#
#*******************************************

_cell_length_a		26.4024(0)
_cell_length_b		9.7357(0)
_cell_length_c		9.8097(0)
_cell_angle_alpha		90(0)
_cell_angle_beta		90(0)
_cell_angle_gamma		90(0)

_symmetry_space_group_name_H-M		'P1'
_symmetry_Int_Tables_number		1
_symmetry_cell_setting		Monoclinic

loop_
_symmetry_equiv_pos_as_xyz
'+x,+y,+z'

loop_
_atom_site_label
_atom_site_type_symbol
_atom_site_fract_x
_atom_site_fract_y
_atom_site_fract_z
0	C	0.219684	0.896126	0.814913
0	C	0.777456	0.134319	0.814806
0	C	0.278509	0.395342	0.174677
0	C	0.718639	0.634811	0.174628
0	C	0.251696	0.877679	0.937764
0	C	0.745454	0.152812	0.937669
0	C	0.246474	0.376886	0.0519086
0	C	0.750665	0.653182	0.0518557
0	C	0.229989	0.901916	0.0644706
0	C	0.76718	0.12865	0.0643685
0	C	0.268222	0.400893	0.925227
0	C	0.728908	0.629073	0.925202
0	C	0.259161	0.888583	0.185963
0	C	0.737999	0.141804	0.185879
0	C	0.239178	0.386758	0.803593
0	C	0.757931	0.643155	0.803497
0	H	0.241387	0.90996	0.284303
0	H	0.75578	0.120475	0.284186
0	H	0.257026	0.407745	0.705279
0	H	0.740081	0.622018	0.705261
0	C	0.308734	0.847501	0.179797
0	C	0.68839	0.182592	0.179716
0	C	0.189632	0.345407	0.809711
0	C	0.807455	0.684707	0.809533
0	H	0.331231	0.837256	0.272588
0	H	0.665881	0.192618	0.272504
0	H	0.167222	0.334479	0.716845
0	H	0.829844	0.69568	0.716636
0	C	0.331675	0.815443	0.0515845
0	C	0.665425	0.214606	0.0515265
0	C	0.166576	0.314071	0.937956
0	C	0.830499	0.716238	0.93776
0	C	0.303168	0.829582	0.929549
0	C	0.693948	0.200714	0.929467
0	C	0.194977	0.328903	0.0601052
0	C	0.802142	0.701294	0.0599517
0	C	0.326703	0.79141	0.803467
0	C	0.670388	0.238811	0.8034
0	C	0.171314	0.291653	0.186285
0	C	0.825825	0.738587	0.18611
0	H	0.304814	0.800252	0.709354
0	H	0.692281	0.230143	0.70931
0	H	0.193115	0.301107	0.280452
0	H	0.804057	0.728909	0.280327
0	C	0.375744	0.7449	0.800001
0	C	0.621301	0.285008	0.799973
0	C	0.122251	0.245301	0.189682
0	C	0.874846	0.785247	0.189421
0	H	0.393576	0.716709	0.703838
0	H	0.60345	0.313136	0.703814
0	H	0.104324	0.217774	0.285881
0	H	0.892795	0.812808	0.285605
0	C	0.404394	0.732886	0.922541
0	C	0.592623	0.296769	0.922493
0	C	0.0937186	0.23252	0.0670312
0	C	0.903317	0.798331	0.0666891
0	H	0.443301	0.695723	0.916814
0	H	0.553703	0.333638	0.916779
0	H	0.0548037	0.195432	0.0727575
0	H	0.942195	0.835761	0.0723125
0	C	0.382861	0.767035	0.0451562
0	C	0.614196	0.262675	0.0450994
0	C	0.115368	0.265832	0.944329
0	C	0.881662	0.764903	0.944048
0	H	0.404131	0.757813	0.140016
0	H	0.592906	0.271708	0.139944
0	H	0.0941675	0.25606	0.849402
0	H	0.902797	0.774883	0.849046
0	C	0.174461	0.937788	0.0763568
0	C	0.822714	0.0928323	0.0762085
0	C	0.323718	0.437162	0.913523
0	C	0.673404	0.592883	0.913609
0	H	0.165278	0.980492	0.178937
0	H	0.83191	0.0502002	0.178806
0	H	0.332886	0.480073	0.811007
0	H	0.664215	0.54992	0.81114
0	H	0.163954	0.0204854	0.00195179
0	H	0.833208	0.0100662	0.00187279
0	H	0.334193	0.51982	0.98799
0	H	0.662927	0.510288	0.988124
0	N	0.142535	0.814492	0.0472532
0	N	0.854654	0.216084	0.046973
0	N	0.355656	0.313832	0.942357
0	N	0.641491	0.716269	0.942416
0	C	0.157002	0.733753	0.923176
0	C	0.840158	0.296772	0.922872
0	C	0.341226	0.232811	0.066329
0	C	0.655979	0.797411	0.066274
0	H	0.123867	0.670098	0.889668
0	H	0.873289	0.360402	0.88929
0	H	0.374411	0.169369	0.0997748
0	H	0.622831	0.861012	0.0996617
0	H	0.187979	0.659694	0.948512
0	H	0.809176	0.37086	0.948226
0	H	0.310326	0.158534	0.0408347
0	H	0.686927	0.871518	0.0406424
0	C	0.173499	0.828164	0.809529
0	C	0.823635	0.202311	0.809295
0	C	0.324627	0.326995	0.180102
0	C	0.672534	0.703247	0.180102
0	C	0.140237	0.846172	0.69644
0	C	0.856868	0.184275	0.696127
0	C	0.357849	0.344672	0.293357
0	C	0.639304	0.685619	0.293321
0	H	0.10408	0.791605	0.695815
0	H	0.893003	0.238953	0.695355
0	H	0.393869	0.289491	0.294272
0	H	0.603299	0.740868	0.294239
0	C	0.153597	0.930736	0.590847
0	C	0.843502	0.0995709	0.590657
0	C	0.344612	0.429769	0.39865
0	C	0.652499	0.600411	0.398572
0	H	0.128041	0.946237	0.504697
0	H	0.869034	0.0840462	0.504463
0	H	0.370162	0.445092	0.48485
0	H	0.626922	0.585112	0.484731
0	C	0.200944	0.00201041	0.59258
0	C	0.79618	0.028203	0.592565
0	C	0.297471	0.502056	0.396484
0	C	0.699608	0.527991	0.396408
0	C	0.233958	0.987397	0.706053
0	C	0.763187	0.0428897	0.706077
0	C	0.264389	0.487265	0.28319
0	C	0.732708	0.542842	0.283156
0	C	0.279962	0.0654552	0.707182
0	C	0.717201	0.964738	0.707377
0	C	0.218585	0.566239	0.281665
0	C	0.778514	0.463823	0.281623
0	H	0.304526	0.0600561	0.796568
0	H	0.692648	0.970245	0.796762
0	H	0.193886	0.560253	0.192609
0	H	0.803216	0.469865	0.192582
0	C	0.293286	0.146108	0.598243
0	C	0.703907	0.883832	0.598623
0	C	0.205669	0.648592	0.389694
0	C	0.791402	0.381353	0.389591
0	H	0.328772	0.203652	0.598283
0	H	0.668433	0.82617	0.598824
0	H	0.170362	0.707006	0.389211
0	H	0.826677	0.322886	0.389118
0	C	0.260849	0.156375	0.482657
0	C	0.736309	0.873479	0.482992
0	C	0.238227	0.659412	0.504969
0	C	0.758801	0.370457	0.504793
0	H	0.272778	0.220007	0.396866
0	H	0.724387	0.809663	0.397332
0	H	0.226619	0.724527	0.590009
0	H	0.770375	0.305241	0.58978
0	C	0.215518	0.0877419	0.480699
0	C	0.781608	0.942275	0.480837
0	C	0.283249	0.589331	0.507557
0	C	0.713784	0.440565	0.507354
0	H	0.189796	0.0970127	0.394406
0	H	0.807304	0.932986	0.394481
0	H	0.309051	0.598699	0.593687
0	H	0.68796	0.431104	0.593449
0	C	0.110815	0.75845	0.14413
0	C	0.886369	0.272159	0.143857
0	C	0.387318	0.258238	0.845146
0	C	0.60981	0.771798	0.845218
0	C	0.091139	0.622223	0.128913
0	C	0.906074	0.408354	0.128617
0	C	0.40699	0.12196	0.859831
0	C	0.590155	0.908104	0.859801
0	H	0.103669	0.557568	0.0444099
0	H	0.893567	0.472979	0.044067
0	H	0.394728	0.0571652	0.944529
0	H	0.602428	0.972927	0.94448
0	C	0.056649	0.570526	0.22048
0	C	0.940545	0.460045	0.220261
0	C	0.441097	0.0702969	0.767267
0	C	0.556047	0.959733	0.767218
0	H	0.0433727	0.464873	0.205716
0	H	0.953839	0.565688	0.205514
0	H	0.45421	0.964411	0.781393
0	H	0.542937	0.0656316	0.781289
0	C	0.0378865	0.649802	0.331745
0	C	0.959276	0.380761	0.331553
0	C	0.459677	0.149768	0.655872
0	C	0.537453	0.880204	0.655895
0	C	0.000552135	0.592932	0.422933
0	C	0.996585	0.437606	0.422853
0	C	0.496603	0.0926002	0.563746
0	C	0.500484	0.93726	0.563812
0	C	0.967983	0.661923	0.507889
0	C	0.0291265	0.368543	0.507837
0	C	0.528939	0.161189	0.477844
0	C	0.468115	0.868567	0.478092
0	C	0.937784	0.588946	0.605055
0	C	0.0592427	0.441394	0.605278
0	C	0.558692	0.0878695	0.379971
0	C	0.438322	0.941881	0.380315
0	N	0.913994	0.529462	0.684712
0	N	0.0828675	0.500725	0.685402
0	N	0.582184	0.0283183	0.299747
0	N	0.414945	0.00172689	0.300065
0	C	0.958574	0.806	0.504707
0	C	0.0385052	0.224451	0.504676
0	C	0.538534	0.305148	0.480948
0	C	0.458611	0.72456	0.481224
0	N	0.948035	0.921376	0.500474
0	N	0.0489853	0.109025	0.500534
0	N	0.549131	0.420491	0.485226
0	N	0.4481	0.609158	0.485487
0	C	0.0588873	0.782836	0.34926
0	C	0.938269	0.247718	0.349028
0	C	0.438931	0.283231	0.639418
0	C	0.558174	0.746675	0.639552
0	H	0.0474698	0.845432	0.437004
0	H	0.94966	0.185086	0.436765
0	H	0.450308	0.346377	0.552006
0	H	0.546794	0.683455	0.55221
0	C	0.0944172	0.835446	0.260141
0	C	0.902745	0.195151	0.259892
0	C	0.403594	0.335606	0.729194
0	C	0.593492	0.694318	0.729385
0	H	0.109377	0.938501	0.277014
0	H	0.887778	0.0920975	0.27675
0	H	0.388671	0.438812	0.712982
0	H	0.60836	0.591027	0.713308
