#******************************************
#
# CIF file created by Zeo++
# Zeo++ is an open source package to
# analyze microporous materials
#
#*******************************************

_cell_length_a		27.561(0)
_cell_length_b		18.2498(0)
_cell_length_c		11.7432(0)
_cell_angle_alpha		90(0)
_cell_angle_beta		98.4079(0)
_cell_angle_gamma		90(0)

_symmetry_space_group_name_H-M		'P1'
_symmetry_Int_Tables_number		1
_symmetry_cell_setting		Monoclinic

loop_
_symmetry_equiv_pos_as_xyz
'+x,+y,+z'

loop_
_atom_site_label
_atom_site_type_symbol
_atom_site_fract_x
_atom_site_fract_y
_atom_site_fract_z
0	S	0.10228	0.322936	0.933901
0	S	0.718036	0.353839	0.607579
0	S	0.703419	0.695682	0.0700357
0	S	0.123142	0.673403	0.421838
0	S	0.582554	0.858903	0.839974
0	S	0.254953	0.820495	0.6777
0	S	0.238469	0.179655	0.172512
0	S	0.587806	0.202356	0.354315
0	O	0.927553	0.121487	0.0621628
0	O	0.903611	0.285966	0.299506
0	O	0.903601	0.813034	0.948074
0	O	0.922277	0.768715	0.660003
0	O	0.401716	0.832798	0.167671
0	O	0.446681	0.621473	0.539026
0	O	0.424618	0.306264	0.913004
0	O	0.39333	0.286286	0.624753
0	O	0.993806	0.089064	0.332724
0	O	0.823464	0.194638	0.1447
0	O	0.849383	0.897703	0.876193
0	O	0.988974	0.886002	0.78235
0	O	0.465611	0.714765	0.298135
0	O	0.365828	0.563936	0.321553
0	O	0.298687	0.496781	0.828684
0	O	0.449334	0.391902	0.701242
0	O	0.994069	0.814865	0.264589
0	O	0.788047	0.042571	0.0439952
0	O	0.840384	0.0468372	0.52575
0	O	0.0269076	0.0700854	0.940728
0	O	0.512752	0.458188	0.312307
0	O	0.322955	0.373931	0.246379
0	O	0.330942	0.610455	0.838316
0	O	0.456933	0.456323	0.946238
0	O	0.123121	0.010031	0.282809
0	O	0.72376	0.0498235	0.20807
0	O	0.709583	0.998173	0.72745
0	O	0.126035	0.980769	0.7701
0	O	0.563812	0.560974	0.25857
0	O	0.252573	0.492408	0.300397
0	O	0.20984	0.480655	0.765981
0	O	0.601266	0.492946	0.730346
0	O	0.152234	0.330634	0.993821
0	O	0.668422	0.356342	0.544112
0	O	0.652151	0.700196	0.0184412
0	O	0.168761	0.668486	0.501079
0	O	0.632651	0.854989	0.901428
0	O	0.210211	0.826493	0.59435
0	O	0.189308	0.179904	0.106747
0	O	0.63656	0.207928	0.42079
0	O	0.0787497	0.388493	0.879741
0	O	0.738393	0.42139	0.661234
0	O	0.720385	0.625283	0.121091
0	O	0.103151	0.6066	0.364429
0	O	0.566488	0.928465	0.786061
0	O	0.276913	0.888906	0.723968
0	O	0.260001	0.108953	0.208209
0	O	0.572008	0.131236	0.306364
0	O	0.15836	0.093911	0.417248
0	O	0.671101	0.120268	0.0831434
0	O	0.66468	0.93404	0.58008
0	O	0.169021	0.907342	0.908651
0	O	0.623101	0.626077	0.37376
0	O	0.210379	0.579521	0.182238
0	O	0.175312	0.388275	0.647796
0	O	0.641927	0.415265	0.865821
0	N	0.0660028	0.296447	0.0342186
0	N	0.757524	0.331213	0.511429
0	N	0.738061	0.711045	0.962186
0	N	0.0787361	0.702472	0.502099
0	N	0.543961	0.843585	0.940635
0	N	0.299222	0.776842	0.611762
0	N	0.277413	0.217474	0.085478
0	N	0.546443	0.225492	0.446098
0	N	0.0917024	0.126651	0.293678
0	N	0.724504	0.176139	0.221995
0	N	0.731535	0.879954	0.681398
0	N	0.0980649	0.864728	0.805419
0	N	0.569801	0.68736	0.243069
0	N	0.265008	0.615458	0.335687
0	N	0.245147	0.363438	0.765824
0	N	0.570366	0.377216	0.763011
0	C	0.100036	0.254688	0.832811
0	C	0.723823	0.284381	0.707092
0	C	0.717096	0.763347	0.17126
0	C	0.125172	0.740999	0.321492
0	C	0.572644	0.789373	0.741291
0	C	0.245514	0.762806	0.787417
0	C	0.243113	0.237503	0.28847
0	C	0.578267	0.268102	0.248415
0	C	0.0670649	0.26091	0.730406
0	C	0.755336	0.29294	0.811492
0	C	0.749577	0.747682	0.271747
0	C	0.0954895	0.734517	0.214298
0	C	0.543143	0.801338	0.634986
0	C	0.267159	0.779044	0.899986
0	C	0.277398	0.222164	0.386021
0	C	0.54555	0.253386	0.147951
0	C	0.0652287	0.206684	0.646213
0	C	0.76205	0.235615	0.890736
0	C	0.761306	0.801544	0.355551
0	C	0.0936765	0.791216	0.134277
0	C	0.534425	0.744605	0.555148
0	C	0.264938	0.728154	0.987663
0	C	0.285707	0.272609	0.475953
0	C	0.53325	0.308337	0.0662644
0	C	0.0968229	0.146243	0.664049
0	C	0.736843	0.169448	0.866318
0	C	0.740295	0.871394	0.339258
0	C	0.121947	0.854387	0.160925
0	C	0.555482	0.675559	0.581222
0	C	0.241167	0.661104	0.962585
0	C	0.25904	0.338214	0.468887
0	C	0.554631	0.377836	0.0836381
0	C	0.129493	0.139914	0.766365
0	C	0.704934	0.161248	0.763073
0	C	0.707664	0.886845	0.239493
0	C	0.152318	0.860055	0.266736
0	C	0.585416	0.663684	0.686408
0	C	0.218116	0.645811	0.850947
0	C	0.22407	0.352507	0.372792
0	C	0.588296	0.391888	0.182368
0	C	0.131045	0.193772	0.851268
0	C	0.698314	0.218477	0.683393
0	C	0.695922	0.833008	0.15541
0	C	0.154219	0.803416	0.347133
0	C	0.594097	0.720559	0.766334
0	C	0.219887	0.69698	0.763321
0	C	0.215909	0.302426	0.282165
0	C	0.600318	0.337105	0.264856
0	C	0.015788	0.328864	0.0200566
0	C	0.810341	0.342865	0.556619
0	C	0.783701	0.666536	0.964407
0	C	0.0270405	0.692456	0.446767
0	C	0.491234	0.85917	0.899995
0	C	0.348918	0.775797	0.682229
0	C	0.330128	0.216384	0.136983
0	C	0.494068	0.213307	0.397445
0	C	0.976322	0.276988	0.0436193
0	C	0.841607	0.329292	0.464627
0	C	0.827257	0.71005	0.940446
0	C	0.991669	0.717455	0.524162
0	C	0.461936	0.852527	0.997344
0	C	0.385059	0.733184	0.624564
0	C	0.362149	0.245058	0.0544991
0	C	0.46029	0.235486	0.480361
0	C	0.985217	0.216841	0.108863
0	C	0.826095	0.294393	0.365313
0	C	0.821725	0.769739	0.873558
0	C	0.00397104	0.757538	0.620095
0	C	0.477569	0.81842	0.0972169
0	C	0.37328	0.689862	0.532317
0	C	0.345265	0.282811	0.958455
0	C	0.474097	0.273564	0.577354
0	C	0.0372142	0.198944	0.161623
0	C	0.775222	0.261928	0.33784
0	C	0.770985	0.792895	0.819308
0	C	0.0559268	0.783219	0.658252
0	C	0.526392	0.779618	0.121172
0	C	0.320801	0.680981	0.475646
0	C	0.290935	0.29582	0.922491
0	C	0.526149	0.299675	0.612821
0	C	0.0707825	0.218413	0.0700222
0	C	0.748701	0.261603	0.446811
0	C	0.738073	0.786953	0.916036
0	C	0.0873427	0.774892	0.558306
0	C	0.551572	0.77563	0.0100193
0	C	0.285417	0.703629	0.562077
0	C	0.262976	0.28816	0.0277271
0	C	0.555102	0.296232	0.50789
0	C	0.942367	0.170498	0.128158
0	C	0.859616	0.295338	0.275906
0	C	0.863611	0.82054	0.859777
0	C	0.965894	0.767023	0.697519
0	C	0.445918	0.826247	0.190624
0	C	0.414456	0.655824	0.480249
0	C	0.380229	0.310154	0.883563
0	C	0.43729	0.28148	0.659177
0	C	0.00983569	0.0741081	0.245336
0	C	0.814701	0.158068	0.22585
0	C	0.806194	0.920487	0.809928
0	C	0.0183705	0.909458	0.724154
0	C	0.479639	0.675487	0.223258
0	C	0.343974	0.550297	0.401731
0	C	0.302442	0.434794	0.90255
0	C	0.488809	0.421372	0.696633
0	C	0.0505225	0.117853	0.198451
0	C	0.773312	0.18021	0.295072
0	C	0.770245	0.871508	0.776036
0	C	0.0628375	0.865478	0.696047
0	C	0.523663	0.698004	0.16143
0	C	0.304013	0.60162	0.435532
0	C	0.279637	0.371323	0.867245
0	C	0.532643	0.380429	0.658126
0	C	0.0513953	0.243179	0.274768
0	C	0.744162	0.304632	0.237981
0	C	0.748329	0.750235	0.710129
0	C	0.0792116	0.737298	0.763713
0	C	0.560834	0.818088	0.220139
0	C	0.310904	0.727761	0.364331
0	C	0.270319	0.241136	0.825537
0	C	0.551435	0.250704	0.712593
0	C	0.0942465	0.201735	0.344516
0	C	0.70958	0.248869	0.169699
0	C	0.71338	0.805378	0.640133
0	C	0.112973	0.78855	0.842151
0	C	0.591804	0.758292	0.2883
0	C	0.267666	0.691189	0.288402
0	C	0.232978	0.284103	0.741653
0	C	0.585155	0.300122	0.794632
0	C	0.990798	0.011064	0.168192
0	C	0.843206	0.0932442	0.271207
0	C	0.804466	0.000838991	0.797373
0	C	0.0148402	0.985624	0.677394
0	C	0.460132	0.610619	0.179831
0	C	0.352968	0.483244	0.47314
0	C	0.330454	0.456527	0.0134649
0	C	0.497779	0.499435	0.723899
0	C	0.992297	0.943072	0.202429
0	C	0.853679	0.0354866	0.209443
0	C	0.81788	0.0399255	0.71102
0	C	0.0071469	0.0438648	0.740958
0	C	0.459588	0.539158	0.167905
0	C	0.363147	0.417563	0.432265
0	C	0.34249	0.52797	0.00849061
0	C	0.475473	0.53931	0.796432
0	C	0.993994	0.876307	0.23569
0	C	0.838519	0.0253546	0.0824052
0	C	0.836202	0.00891002	0.609087
0	C	0.000241452	0.0390947	0.864455
0	C	0.491098	0.496286	0.246098
0	C	0.367781	0.402754	0.308282
0	C	0.325345	0.555249	0.890517
0	C	0.437646	0.512635	0.866791
0	C	0.12496	0.0707145	0.327407
0	C	0.708069	0.109664	0.171247
0	C	0.70122	0.942534	0.670063
0	C	0.132221	0.922882	0.822685
0	C	0.583741	0.619801	0.290189
0	C	0.243725	0.556454	0.271485
0	C	0.209216	0.418438	0.729979
0	C	0.605496	0.434104	0.780403
0	C	0.226465	0.00892859	0.403264
0	C	0.617446	0.0186399	0.118726
0	C	0.612738	0.0390805	0.611783
0	C	0.224565	0.0100324	0.884567
0	C	0.673372	0.525119	0.320969
0	C	0.148944	0.483985	0.203018
0	C	0.106466	0.472509	0.658726
0	C	0.701847	0.51361	0.853631
0	C	0.193274	0.0396629	0.483649
0	C	0.642827	0.0547989	0.0270297
0	C	0.639782	0.00209527	0.523973
0	C	0.198047	0.970496	0.970878
0	C	0.651632	0.558698	0.420539
0	C	0.174736	0.525029	0.116932
0	C	0.137287	0.436458	0.577703
0	C	0.671913	0.474792	0.933558
0	C	0.219766	0.0912791	0.574407
0	C	0.607554	0.0940113	0.934887
0	C	0.605722	0.966899	0.425377
0	C	0.232568	0.928244	0.0604221
0	C	0.689646	0.595067	0.510138
0	C	0.139881	0.577177	0.0438341
0	C	0.109822	0.377745	0.501132
0	C	0.702476	0.427054	0.0236368
0	C	0.16256	0.982073	0.532759
0	C	0.678762	0.00578678	0.97748
0	C	0.679614	0.0487409	0.483839
0	C	0.160898	0.0166752	0.0218089
0	C	0.617604	0.507983	0.473406
0	C	0.205075	0.477535	0.0485765
0	C	0.164568	0.490137	0.512235
0	C	0.636198	0.524023	0.984116
0	H	0.0428683	0.30865	0.71599
0	H	0.774697	0.344807	0.831053
0	H	0.765551	0.692819	0.285006
0	H	0.0736701	0.6849	0.193348
0	H	0.527095	0.855474	0.614417
0	H	0.285798	0.831669	0.91974
0	H	0.297899	0.170585	0.391554
0	H	0.529533	0.198643	0.133337
0	H	0.0392523	0.211011	0.566957
0	H	0.787183	0.241	0.971672
0	H	0.786857	0.789572	0.43325
0	H	0.070456	0.786724	0.0508859
0	H	0.510828	0.752683	0.472389
0	H	0.282443	0.7399	0.0754918
0	H	0.313782	0.262176	0.550284
0	H	0.506346	0.297783	0.989713
0	H	0.0959396	0.10372	0.598019
0	H	0.742462	0.124123	0.928683
0	H	0.749406	0.913892	0.404575
0	H	0.120383	0.899955	0.099075
0	H	0.548127	0.630942	0.518915
0	H	0.240645	0.620342	0.0311638
0	H	0.265783	0.378559	0.538361
0	H	0.544449	0.421147	0.0197241
0	H	0.153141	0.0909005	0.78125
0	H	0.685647	0.108627	0.743293
0	H	0.69171	0.9423	0.226476
0	H	0.173594	0.910781	0.287934
0	H	0.6017	0.60951	0.706693
0	H	0.200215	0.592718	0.830926
0	H	0.204139	0.40533	0.366801
0	H	0.604745	0.446866	0.196876
0	H	0.15656	0.187705	0.932511
0	H	0.673209	0.211075	0.60202
0	H	0.670077	0.845896	0.0769523
0	H	0.178449	0.80871	0.430504
0	H	0.617894	0.710606	0.849014
0	H	0.201368	0.684614	0.675673
0	H	0.188818	0.314751	0.206087
0	H	0.626674	0.34885	0.342689
0	H	0.939276	0.292426	0.00509101
0	H	0.878964	0.351115	0.483371
0	H	0.863136	0.691024	0.98136
0	H	0.953646	0.69972	0.497879
0	H	0.42579	0.878923	0.982375
0	H	0.423226	0.739565	0.66465
0	H	0.401459	0.234379	0.0782516
0	H	0.422269	0.217039	0.457202
0	H	0.975566	0.0273939	0.0794356
0	H	0.85536	0.0946121	0.365191
0	H	0.788967	0.0278763	0.868927
0	H	0.0194885	0.991008	0.586766
0	H	0.453634	0.407455	0.907598
0	H	0.350117	0.489897	0.565264
0	H	0.337381	0.418598	0.0854469
0	H	0.525763	0.525611	0.679008
0	H	0.89511	0.830075	0.0224241
0	H	0.875863	0.990627	0.251787
0	H	0.814137	0.0997177	0.710147
0	H	0.00544142	0.0995482	0.705416
0	H	0.436931	0.508325	0.09843
0	H	0.368268	0.369317	0.489505
0	H	0.360872	0.563523	0.0752164
0	H	0.484351	0.597747	0.807433
0	H	0.0173616	0.375403	0.0830453
0	H	0.814822	0.401182	0.586734
0	H	0.775055	0.622864	0.896771
0	H	0.0215591	0.632557	0.427647
0	H	0.488489	0.916581	0.865502
0	H	0.361269	0.834052	0.6946
0	H	0.340205	0.158354	0.161032
0	H	0.489591	0.153124	0.37878
0	H	0.00588831	0.354278	0.933118
0	H	0.82343	0.307111	0.632263
0	H	0.792507	0.63674	0.0480633
0	H	0.0187091	0.722175	0.362557
0	H	0.475249	0.822041	0.828555
0	H	0.348414	0.751112	0.769708
0	H	0.337176	0.25096	0.217273
0	H	0.483147	0.242982	0.31439
0	H	0.0614965	0.179789	0.995789
0	H	0.761363	0.213181	0.501184
0	H	0.751256	0.82779	0.984177
0	H	0.0785648	0.820692	0.495723
0	H	0.537441	0.726636	0.958743
0	H	0.286886	0.660506	0.630289
0	H	0.271535	0.336052	0.0864496
0	H	0.544312	0.343849	0.450085
0	H	0.110302	0.208922	0.106928
0	H	0.708193	0.254004	0.419128
0	H	0.699189	0.801881	0.881143
0	H	0.127242	0.780192	0.594341
0	H	0.591989	0.766173	0.0358479
0	H	0.246765	0.705268	0.516017
0	H	0.222306	0.289133	0.998458
0	H	0.595457	0.302243	0.53947
0	H	0.0614494	0.300081	0.256289
0	H	0.723809	0.349654	0.272638
0	H	0.728703	0.700628	0.732018
0	H	0.0992579	0.689686	0.735048
0	H	0.583923	0.859391	0.184838
0	H	0.302946	0.785254	0.385038
0	H	0.253564	0.19301	0.861846
0	H	0.571933	0.205546	0.67829
0	H	0.019641	0.246486	0.322417
0	H	0.76785	0.330742	0.18153
0	H	0.777294	0.731694	0.661082
0	H	0.0508558	0.713574	0.810019
0	H	0.53936	0.848473	0.277164
0	H	0.343686	0.729812	0.31985
0	H	0.300027	0.219115	0.781671
0	H	0.524128	0.223437	0.758333
0	H	0.0910743	0.198532	0.437523
0	H	0.71238	0.249739	0.0762202
0	H	0.714639	0.801933	0.546274
0	H	0.108315	0.782527	0.934258
0	H	0.591184	0.762725	0.382507
0	H	0.272937	0.690139	0.19628
0	H	0.235748	0.272451	0.650023
0	H	0.580695	0.291509	0.886314
0	H	0.130408	0.226842	0.336838
0	H	0.670457	0.258381	0.178419
0	H	0.674664	0.797096	0.65319
0	H	0.152426	0.778788	0.836665
0	H	0.630875	0.759794	0.274566
0	H	0.232166	0.719085	0.293688
0	H	0.19446	0.272353	0.753685
0	H	0.62459	0.290765	0.788505
0	H	0.95893	0.170802	0.466699
0	H	0.845109	0.96884	0.053694
0	H	0.845676	0.950194	0.611344
0	H	0.967405	0.00375548	0.881998
0	H	0.468177	0.468607	0.468683
0	H	0.394771	0.358995	0.299763
0	H	0.344896	0.427833	0.679571
0	H	0.427001	0.556432	0.924095
0	H	0.952328	0.191955	0.410349
0	H	0.858625	0.0649325	0.0333638
0	H	0.923112	0.97356	0.917348
0	H	0.932106	0.940192	0.885863
0	H	0.457431	0.504376	0.488094
0	H	0.377466	0.452888	0.262573
0	H	0.350644	0.389375	0.704921
0	H	0.404603	0.492203	0.810209
0	H	0.924955	0.184378	0.20466
0	H	0.842129	0.307269	0.186985
0	H	0.878991	0.815554	0.777128
0	H	0.979227	0.769453	0.79089
0	H	0.465435	0.829564	0.279345
0	H	0.414403	0.665087	0.386572
0	H	0.364854	0.335302	0.798426
0	H	0.451688	0.274599	0.751402
0	H	0.0628237	0.0861617	0.125034
0	H	0.773491	0.140774	0.369007
0	H	0.765998	0.0186087	0.0937916
0	H	0.0788951	0.897217	0.627778
0	H	0.524613	0.660147	0.085986
0	H	0.286002	0.573365	0.50379
0	H	0.294216	0.404161	0.263015
0	H	0.54567	0.416159	0.589972
0	H	0.256105	0.975893	0.450047
0	H	0.590696	0.977623	0.081055
0	H	0.586901	0.0804216	0.571777
0	H	0.251839	0.0483796	0.927753
0	H	0.70019	0.482446	0.351093
0	H	0.120284	0.447955	0.159347
0	H	0.0752333	0.501972	0.611419
0	H	0.727475	0.553006	0.900334
0	H	0.205886	0.973606	0.336305
0	H	0.644086	0.991032	0.184251
0	H	0.638456	0.0659768	0.680107
0	H	0.198803	0.0409355	0.821255
0	H	0.644735	0.500151	0.257088
0	H	0.174536	0.449595	0.261042
0	H	0.127993	0.512462	0.715604
0	H	0.678288	0.543732	0.785437
0	H	0.243453	0.0518904	0.356179
0	H	0.59763	0.0586217	0.165345
0	H	0.591709	0.999376	0.656336
0	H	0.244165	0.971532	0.834561
0	H	0.692323	0.56596	0.273926
0	H	0.131301	0.521826	0.25808
0	H	0.0919869	0.433111	0.716563
0	H	0.723271	0.475192	0.80808
0	H	0.243727	0.0600058	0.640047
0	H	0.58837	0.0536616	0.874064
0	H	0.58765	0.00987942	0.367724
0	H	0.249674	0.965827	0.128289
0	H	0.710575	0.553146	0.564382
0	H	0.119224	0.547483	0.970843
0	H	0.0807996	0.402527	0.439342
0	H	0.726498	0.461569	0.0844893
0	H	0.242236	0.131412	0.536324
0	H	0.579893	0.125596	0.971713
0	H	0.577172	0.933949	0.456565
0	H	0.262211	0.90134	0.0230396
0	H	0.715609	0.62856	0.470661
0	H	0.113415	0.601859	0.0937239
0	H	0.093025	0.337088	0.551933
0	H	0.72521	0.388154	0.983823
0	H	0.193666	0.122315	0.617686
0	H	0.627099	0.132017	0.885164
0	H	0.625859	0.930871	0.374038
0	H	0.213355	0.885396	0.101855
0	H	0.672031	0.630783	0.567286
0	H	0.159308	0.622502	0.00909466
0	H	0.134585	0.3479	0.452309
0	H	0.678955	0.395017	0.0727868
0	H	0.141241	0.00449687	0.596846
0	H	0.693843	0.0309094	0.904876
0	H	0.697915	0.0213032	0.418652
0	H	0.14176	0.98535	0.0822414
0	H	0.605007	0.531614	0.550152
0	H	0.216074	0.505534	0.973453
0	H	0.193011	0.463939	0.469581
0	H	0.606647	0.493157	0.0149604
0	H	0.137079	0.954904	0.465233
0	H	0.710134	0.989633	0.0415881
0	H	0.707996	0.0645913	0.555198
0	H	0.132618	0.0398626	0.955929
0	H	0.585213	0.492882	0.412178
0	H	0.23842	0.457426	0.101848
0	H	0.182696	0.533857	0.567721
0	H	0.618863	0.56452	0.921666
0	H	0.185834	0.938159	0.576416
0	H	0.661334	0.954276	0.943077
0	H	0.664598	0.100362	0.444518
0	H	0.178294	0.0634833	0.0710471
0	H	0.636441	0.456349	0.502746
0	H	0.184351	0.4284	0.0145028
0	H	0.139174	0.517838	0.44403
0	H	0.655093	0.555527	0.0577576
