#******************************************
#
# CIF file created by Zeo++
# Zeo++ is an open source package to
# analyze microporous materials
#
#*******************************************

_cell_length_a		23.0389(0)
_cell_length_b		17.6496(0)
_cell_length_c		8.88473(0)
_cell_angle_alpha		90(0)
_cell_angle_beta		77.104(0)
_cell_angle_gamma		90(0)

_symmetry_space_group_name_H-M		'P1'
_symmetry_Int_Tables_number		1
_symmetry_cell_setting		Monoclinic

loop_
_symmetry_equiv_pos_as_xyz
'+x,+y,+z'

loop_
_atom_site_label
_atom_site_type_symbol
_atom_site_fract_x
_atom_site_fract_y
_atom_site_fract_z
0	C	0.301844	0.469173	0.46772
0	C	0.309605	0.52478	0.95248
0	C	0.798205	0.970591	0.465745
0	C	0.805932	0.0234284	0.950569
0	C	0.397144	0.522079	0.341166
0	C	0.405576	0.470371	0.835606
0	C	0.894099	0.0233551	0.341119
0	C	0.902546	0.969238	0.835659
0	C	0.331428	0.545741	0.419482
0	C	0.339414	0.447607	0.911109
0	C	0.828163	0.0470769	0.417797
0	C	0.836179	0.946366	0.909429
0	N	0.338284	0.41184	0.423971
0	N	0.346735	0.581529	0.909815
0	N	0.834646	0.913228	0.422511
0	N	0.843042	0.0802325	0.908449
0	N	0.393625	0.436903	0.347041
0	N	0.402546	0.555637	0.837729
0	N	0.890176	0.938146	0.346617
0	N	0.899039	0.0545263	0.837411
0	C	0.449256	0.556772	0.39791
0	C	0.456725	0.435212	0.895467
0	C	0.94619	0.0573346	0.399413
0	C	0.953708	0.934935	0.897155
0	C	0.487348	0.589817	0.250709
0	C	0.495929	0.402451	0.749597
0	C	0.985485	0.0894582	0.252679
0	C	0.994205	0.90313	0.751961
0	N	0.460871	0.58374	0.134809
0	N	0.470403	0.408048	0.6318
0	N	0.95939	0.0839691	0.135952
0	N	0.969131	0.908117	0.633215
0	O	0.407365	0.545123	0.177651
0	O	0.41681	0.446704	0.671989
0	O	0.905233	0.0466666	0.177676
0	O	0.914813	0.945304	0.672158
0	C	0.299799	0.594396	0.320082
0	C	0.309626	0.396484	0.81188
0	C	0.79682	0.0955617	0.317401
0	C	0.806689	0.895394	0.809226
0	C	0.290309	0.668308	0.409211
0	C	0.298767	0.324362	0.906552
0	C	0.786304	0.169191	0.407391
0	C	0.794765	0.823558	0.904666
0	N	0.309529	0.66466	0.536983
0	N	0.315582	0.330971	0.0371425
0	N	0.805232	0.16569	0.535606
0	N	0.811368	0.829988	0.0355919
0	O	0.332698	0.593424	0.555602
0	O	0.33857	0.402665	0.0522054
0	O	0.828994	0.0948024	0.554047
0	O	0.834957	0.90134	0.0505344
0	C	0.442657	0.385953	0.302922
0	C	0.452824	0.605341	0.80658
0	C	0.938934	0.886798	0.302624
0	C	0.949048	0.104679	0.806569
0	O	0.490595	0.412363	0.237319
0	O	0.50155	0.577829	0.751517
0	O	0.987022	0.912774	0.237056
0	O	0.997971	0.0775992	0.752165
0	C	0.547949	0.618359	0.237246
0	C	0.556606	0.374763	0.738488
0	C	0.0463768	0.117243	0.240009
0	C	0.0551392	0.876172	0.741993
0	C	0.595246	0.585685	0.125957
0	C	0.603741	0.407803	0.627135
0	C	0.0938549	0.0842645	0.12962
0	C	0.102543	0.909439	0.631713
0	C	0.654005	0.60709	0.122828
0	C	0.66254	0.386476	0.623329
0	C	0.152636	0.105862	0.126222
0	C	0.161315	0.887729	0.627706
0	C	0.666798	0.660866	0.226883
0	C	0.67543	0.33243	0.726842
0	C	0.165464	0.16005	0.229427
0	C	0.174133	0.83316	0.730264
0	C	0.619921	0.695348	0.332233
0	C	0.628728	0.297932	0.832797
0	C	0.118497	0.19462	0.334299
0	C	0.127269	0.798823	0.835938
0	C	0.560705	0.675168	0.336833
0	C	0.569461	0.318457	0.838938
0	C	0.0592714	0.174306	0.338971
0	C	0.0680308	0.819593	0.841946
0	C	0.584082	0.528705	0.0120296
0	C	0.591954	0.465357	0.514851
0	C	0.0830252	0.026618	0.0165783
0	C	0.0912712	0.967727	0.52026
0	C	0.72991	0.6806	0.224947
0	C	0.7386	0.313026	0.724718
0	C	0.228574	0.180055	0.227337
0	C	0.237253	0.812971	0.727339
0	C	0.51247	0.714681	0.449466
0	C	0.521391	0.280315	0.954496
0	C	0.0111456	0.214114	0.451399
0	C	0.0199843	0.781149	0.957075
0	C	0.264193	0.733223	0.346077
0	C	0.274086	0.257851	0.845175
0	C	0.759823	0.233853	0.344412
0	C	0.76963	0.757331	0.843453
0	C	0.201777	0.739181	0.366247
0	C	0.211926	0.250483	0.861896
0	C	0.697395	0.239466	0.364499
0	C	0.707453	0.750295	0.860182
0	C	0.178012	0.797189	0.291167
0	C	0.189841	0.191592	0.785438
0	C	0.673459	0.297348	0.289454
0	C	0.68515	0.69153	0.783817
0	C	0.215525	0.849667	0.19807
0	C	0.228764	0.139963	0.69394
0	C	0.710791	0.350173	0.196904
0	C	0.72385	0.639542	0.692762
0	C	0.277369	0.844733	0.181809
0	C	0.290271	0.145766	0.682752
0	C	0.772647	0.345592	0.180756
0	C	0.785383	0.644994	0.681617
0	C	0.302064	0.786687	0.254869
0	C	0.313296	0.204379	0.758229
0	C	0.797507	0.287606	0.253515
0	C	0.808617	0.703551	0.756703
0	C	0.161506	0.68406	0.46635
0	C	0.170283	0.304716	0.960466
0	C	0.657207	0.184267	0.464626
0	C	0.665916	0.804608	0.958836
0	C	0.189285	0.909924	0.116239
0	C	0.204125	0.0795363	0.608885
0	C	0.684419	0.410476	0.115607
0	C	0.699047	0.579074	0.608246
0	C	0.367977	0.78065	0.234378
0	C	0.378779	0.21095	0.74571
0	C	0.863444	0.281951	0.232968
0	C	0.874121	0.70982	0.744166
0	C	0.433963	0.302889	0.331232
0	C	0.444804	0.688657	0.832689
0	C	0.929786	0.803828	0.331203
0	C	0.940464	0.187923	0.8324
0	C	0.386902	0.262671	0.29327
0	C	0.399633	0.73019	0.788386
0	C	0.882451	0.764008	0.293688
0	C	0.894921	0.228849	0.788461
0	C	0.384873	0.183674	0.307779
0	C	0.398745	0.80921	0.802861
0	C	0.880067	0.685036	0.30846
0	C	0.893488	0.307858	0.803101
0	C	0.429131	0.145252	0.361885
0	C	0.44235	0.846362	0.862037
0	C	0.924212	0.646271	0.362346
0	C	0.936938	0.345576	0.861854
0	C	0.475571	0.185714	0.403043
0	C	0.486952	0.804626	0.908802
0	C	0.970913	0.686364	0.403097
0	C	0.981951	0.304425	0.908081
0	C	0.478082	0.264414	0.388099
0	C	0.488225	0.725893	0.894567
0	C	0.973812	0.765036	0.387865
0	C	0.983779	0.2257	0.893768
0	C	0.239505	0.458933	0.548502
0	C	0.24644	0.535608	0.0261409
0	C	0.735739	0.960175	0.545805
0	C	0.742652	0.034346	0.0236266
0	C	0.210162	0.514214	0.651726
0	C	0.21511	0.480766	0.127264
0	C	0.706044	0.0154751	0.64841
0	C	0.711044	0.979453	0.124144
0	C	0.151345	0.502605	0.731189
0	C	0.155228	0.492199	0.197676
0	C	0.647175	0.00373176	0.727461
0	C	0.651149	0.991011	0.194465
0	C	0.121501	0.43604	0.708482
0	C	0.126111	0.558359	0.168739
0	C	0.61754	0.936966	0.705026
0	C	0.622211	0.0574004	0.166091
0	C	0.150642	0.380739	0.606217
0	C	0.157184	0.613346	0.0690293
0	C	0.64699	0.881604	0.603414
0	C	0.6535	0.112466	0.0669998
0	C	0.209401	0.391943	0.526052
0	C	0.21702	0.602183	0.997596
0	C	0.705799	0.89295	0.523686
0	C	0.713347	0.101176	0.995709
0	H	0.690211	0.582586	0.0364898
0	H	0.698689	0.41101	0.53689
0	H	0.188893	0.0810724	0.0404141
0	H	0.197568	0.912456	0.541759
0	H	0.629533	0.737753	0.412002
0	H	0.638558	0.255219	0.911958
0	H	0.128048	0.23726	0.413691
0	H	0.136957	0.755881	0.914853
0	H	0.556709	0.480848	0.0692968
0	H	0.565199	0.51329	0.574032
0	H	0.0553247	0.979167	0.0743953
0	H	0.0640547	0.0151718	0.579879
0	H	0.624952	0.504402	0.940925
0	H	0.632543	0.489494	0.442186
0	H	0.124028	0.00174346	0.947242
0	H	0.132064	0.992499	0.449849
0	H	0.559469	0.553618	0.930354
0	H	0.566226	0.441098	0.435364
0	H	0.0589034	0.0510865	0.933404
0	H	0.0662129	0.943955	0.438805
0	H	0.734588	0.734589	0.282693
0	H	0.743493	0.258683	0.781127
0	H	0.2332	0.234102	0.284924
0	H	0.241942	0.758524	0.783546
0	H	0.756954	0.686056	0.106245
0	H	0.765695	0.308221	0.606057
0	H	0.255645	0.185419	0.108661
0	H	0.264163	0.808008	0.608429
0	H	0.750797	0.636671	0.283
0	H	0.759074	0.356675	0.784378
0	H	0.249593	0.136315	0.285491
0	H	0.258278	0.856229	0.786587
0	H	0.470216	0.717421	0.41212
0	H	0.47922	0.276004	0.917149
0	H	0.968992	0.217494	0.413634
0	H	0.978035	0.776047	0.918874
0	H	0.52441	0.773131	0.47215
0	H	0.533527	0.222672	0.98208
0	H	0.0234424	0.272344	0.474711
0	H	0.032511	0.723835	0.985674
0	H	0.504098	0.684849	0.561517
0	H	0.512476	0.312475	0.0643418
0	H	0.00239753	0.184067	0.56327
0	H	0.0104749	0.813633	0.0665834
0	H	0.129992	0.802214	0.305736
0	H	0.142027	0.185365	0.797287
0	H	0.625433	0.302092	0.303774
0	H	0.637316	0.685591	0.795579
0	H	0.306437	0.885529	0.110371
0	H	0.320425	0.105396	0.61321
0	H	0.801562	0.386674	0.109755
0	H	0.815371	0.604316	0.612538
0	H	0.171033	0.681119	0.58238
0	H	0.177159	0.305651	0.0793127
0	H	0.666668	0.181587	0.58077
0	H	0.672898	0.805491	0.0775808
0	H	0.166679	0.626533	0.417338
0	H	0.17663	0.362957	0.915406
0	H	0.662532	0.126699	0.415893
0	H	0.672255	0.86283	0.913702
0	H	0.114316	0.699446	0.48297
0	H	0.123332	0.289911	0.969597
0	H	0.609984	0.199489	0.481037
0	H	0.618943	0.789804	0.968263
0	H	0.222457	0.949366	0.0517579
0	H	0.238204	0.0411386	0.544667
0	H	0.717444	0.450342	0.0520136
0	H	0.732957	0.540171	0.545045
0	H	0.156136	0.944069	0.196904
0	H	0.171156	0.0443225	0.687795
0	H	0.650998	0.4442	0.196505
0	H	0.665742	0.544346	0.687347
0	H	0.165452	0.885043	0.0332377
0	H	0.180404	0.104323	0.525623
0	H	0.660841	0.385714	0.0319528
0	H	0.675676	0.603775	0.524144
0	H	0.38109	0.773165	0.345011
0	H	0.389587	0.218626	0.859156
0	H	0.876626	0.274456	0.343488
0	H	0.884959	0.717496	0.857572
0	H	0.391837	0.830339	0.177229
0	H	0.403596	0.161327	0.691328
0	H	0.887088	0.331827	0.176054
0	H	0.898796	0.660076	0.689932
0	H	0.385411	0.73134	0.161405
0	H	0.39715	0.26034	0.674188
0	H	0.881051	0.232788	0.159707
0	H	0.892612	0.75911	0.67259
0	H	0.351768	0.292634	0.251981
0	H	0.365199	0.701349	0.742095
0	H	0.847449	0.794267	0.252396
0	H	0.860648	0.199582	0.742261
0	H	0.348377	0.152589	0.276812
0	H	0.363674	0.841484	0.767805
0	H	0.843353	0.65421	0.277908
0	H	0.858106	0.339685	0.768452
0	H	0.427538	0.0837811	0.372419
0	H	0.441712	0.907884	0.871961
0	H	0.92232	0.584817	0.373052
0	H	0.935871	0.407067	0.871877
0	H	0.509725	0.155818	0.446702
0	H	0.520698	0.833438	0.956079
0	H	0.0049412	0.656242	0.446765
0	H	0.0155529	0.333655	0.955096
0	H	0.513978	0.296679	0.420475
0	H	0.522775	0.692627	0.930973
0	H	0.00996421	0.796992	0.419756
0	H	0.0186973	0.192882	0.929646
0	H	0.233795	0.565574	0.672187
0	H	0.237895	0.429694	0.153083
0	H	0.729414	0.067062	0.668798
0	H	0.733572	0.928122	0.149641
0	H	0.129127	0.545406	0.81253
0	H	0.131405	0.449415	0.276324
0	H	0.624751	0.0466159	0.808287
0	H	0.627188	0.948123	0.272662
0	H	0.0757216	0.427016	0.770976
0	H	0.0794709	0.567173	0.22434
0	H	0.571728	0.92779	0.767236
0	H	0.575571	0.0663804	0.221606
0	H	0.127765	0.328247	0.590336
0	H	0.134941	0.665632	0.0476937
0	H	0.624285	0.828928	0.587754
0	H	0.631408	0.16497	0.0461446
0	H	0.23252	0.348533	0.447329
0	H	0.241382	0.645342	0.920199
0	H	0.729041	0.849321	0.445716
0	H	0.737784	0.144587	0.919109
0	H	0.474412	0.514289	0.451098
0	H	0.481394	0.47714	0.951476
0	H	0.970442	0.014523	0.454432
0	H	0.977363	0.977258	0.955008
0	H	0.433829	0.599631	0.489524
0	H	0.440592	0.392116	0.986104
0	H	0.93079	0.100712	0.489874
0	H	0.937637	0.891289	0.986656
0	H	0.257202	0.569598	0.305537
0	H	0.267663	0.420389	0.791053
0	H	0.754632	0.070304	0.300889
0	H	0.765183	0.91973	0.786293
0	H	0.326938	0.603458	0.200635
0	H	0.338356	0.385218	0.695101
0	H	0.824417	0.105118	0.198662
0	H	0.8359	0.883647	0.693301
