#******************************************
#
# CIF file created by Zeo++
# Zeo++ is an open source package to
# analyze microporous materials
#
#*******************************************

_cell_length_a		12.0743(0)
_cell_length_b		17.2669(0)
_cell_length_c		18.8316(0)
_cell_angle_alpha		90(0)
_cell_angle_beta		90(0)
_cell_angle_gamma		90(0)

_symmetry_space_group_name_H-M		'P1'
_symmetry_Int_Tables_number		1
_symmetry_cell_setting		Monoclinic

loop_
_symmetry_equiv_pos_as_xyz
'+x,+y,+z'

loop_
_atom_site_label
_atom_site_type_symbol
_atom_site_fract_x
_atom_site_fract_y
_atom_site_fract_z
0	O	0.212154	0.536454	0.276838
0	O	0.338447	0.468322	0.767221
0	O	0.842652	0.0373282	0.194019
0	O	0.708189	0.966933	0.682065
0	O	0.331582	0.55611	0.186324
0	O	0.223948	0.449728	0.673681
0	O	0.726572	0.054387	0.287015
0	O	0.826532	0.948945	0.773613
0	O	0.319929	0.722468	0.337419
0	O	0.230973	0.282188	0.827004
0	O	0.731996	0.221651	0.13198
0	O	0.817348	0.780949	0.622124
0	O	0.496758	0.722841	0.296939
0	O	0.054841	0.282622	0.785747
0	O	0.556164	0.222308	0.173854
0	O	0.994281	0.780656	0.662087
0	O	0.411902	0.622608	0.443565
0	O	0.142197	0.379937	0.937064
0	O	0.644125	0.123607	0.0233969
0	O	0.909666	0.878663	0.51443
0	O	0.492897	0.509886	0.413228
0	O	0.0530846	0.488612	0.903425
0	O	0.548325	0.019682	0.0617707
0	O	0.00079455	0.983208	0.555434
0	O	0.0692467	0.614615	0.17562
0	O	0.480971	0.390149	0.663772
0	O	0.981546	0.1177	0.295713
0	O	0.568698	0.886269	0.782399
0	O	0.978339	0.548447	0.0895834
0	O	0.580856	0.447608	0.576827
0	O	0.0755201	0.0540336	0.381821
0	O	0.483752	0.960234	0.865555
0	O	0.0739952	0.768684	0.225005
0	O	0.4753	0.23443	0.712091
0	O	0.975816	0.272905	0.245365
0	O	0.576641	0.73294	0.732943
0	O	0.0494828	0.8971	0.206865
0	O	0.506698	0.11005	0.680206
0	O	0.00797331	0.397778	0.275103
0	O	0.550369	0.606215	0.758115
0	O	0.910769	0.79876	0.364765
0	O	0.63916	0.203397	0.851327
0	O	0.13987	0.30223	0.106443
0	O	0.411178	0.701378	0.594575
0	H	0.929936	0.801074	0.416619
0	H	0.61947	0.201914	0.903079
0	H	0.118689	0.304442	0.0550155
0	H	0.428327	0.699871	0.54246
0	N	0.0736356	0.714507	0.438873
0	N	0.478078	0.286656	0.926024
0	N	0.978896	0.217295	0.0325179
0	N	0.57297	0.78698	0.519919
0	C	0.206165	0.619868	0.291192
0	C	0.343963	0.384947	0.781295
0	C	0.846053	0.120581	0.179074
0	C	0.703805	0.883538	0.66756
0	H	0.201045	0.652587	0.239492
0	H	0.347506	0.352486	0.729493
0	H	0.84888	0.154135	0.230441
0	H	0.699239	0.850709	0.719312
0	C	0.315047	0.638663	0.330985
0	C	0.235746	0.36617	0.821908
0	C	0.737449	0.137758	0.13834
0	C	0.812852	0.864862	0.628012
0	H	0.388757	0.619116	0.299181
0	H	0.161706	0.386366	0.790896
0	H	0.663488	0.11751	0.169331
0	H	0.886452	0.884546	0.659644
0	C	0.314432	0.598114	0.403577
0	C	0.237594	0.405111	0.895334
0	C	0.739164	0.0982121	0.0652232
0	C	0.813134	0.904292	0.55496
0	H	0.321119	0.533976	0.392356
0	H	0.229889	0.469337	0.885424
0	H	0.731575	0.0341192	0.0752365
0	H	0.821094	0.968513	0.565257
0	C	0.212706	0.611839	0.450955
0	C	0.340409	0.389645	0.9414
0	C	0.841835	0.113526	0.0189225
0	C	0.711163	0.890187	0.507845
0	C	0.105503	0.587892	0.409479
0	C	0.447001	0.413949	0.899395
0	C	0.948721	0.0903766	0.0610819
0	C	0.603445	0.913798	0.549095
0	H	0.0922187	0.525228	0.406398
0	H	0.460238	0.47659	0.897286
0	H	0.962913	0.0278763	0.0640926
0	H	0.589936	0.97643	0.551828
0	C	0.0166419	0.636326	0.450785
0	C	0.536186	0.3643	0.939212
0	C	0.0374746	0.139646	0.0205437
0	C	0.514855	0.864811	0.507934
0	H	0.0124257	0.62227	0.508374
0	H	0.541266	0.376763	0.997066
0	H	0.0427867	0.126207	0.962899
0	H	0.510063	0.878748	0.450335
0	C	0.900562	0.633276	0.418226
0	C	0.651823	0.367195	0.906092
0	C	0.153251	0.137499	0.0538079
0	C	0.39858	0.866322	0.540487
0	H	0.844798	0.673031	0.447554
0	H	0.707178	0.326038	0.934082
0	H	0.20847	0.178252	0.025215
0	H	0.344462	0.82515	0.511511
0	H	0.865623	0.574496	0.425147
0	H	0.688308	0.425335	0.913931
0	H	0.189717	0.0791875	0.0468657
0	H	0.360961	0.924156	0.532908
0	C	0.903671	0.655123	0.339244
0	C	0.647267	0.34707	0.826757
0	C	0.148861	0.159093	0.132881
0	C	0.402186	0.845004	0.619567
0	C	0.991048	0.602687	0.299105
0	C	0.559865	0.400494	0.787751
0	C	0.0616223	0.106072	0.172425
0	C	0.488382	0.898501	0.659368
0	H	0.979257	0.539675	0.310305
0	H	0.573197	0.463252	0.79941
0	H	0.0747414	0.0432451	0.161443
0	H	0.474471	0.961219	0.647908
0	C	0.100905	0.629157	0.335134
0	C	0.450106	0.374283	0.824179
0	C	0.951747	0.131451	0.135736
0	C	0.598881	0.872926	0.623522
0	C	0.968866	0.61476	0.219197
0	C	0.581215	0.388996	0.707663
0	C	0.0823233	0.118574	0.252414
0	C	0.467702	0.886163	0.739383
0	H	0.915906	0.565764	0.199749
0	H	0.634555	0.438083	0.688651
0	H	0.135697	0.0698572	0.272068
0	H	0.414394	0.934717	0.759406
0	C	0.910391	0.693297	0.205104
0	C	0.639608	0.310589	0.692658
0	C	0.139552	0.197443	0.266896
0	C	0.41082	0.807107	0.753588
0	H	0.916239	0.707769	0.147609
0	H	0.63416	0.296921	0.635091
0	H	0.132227	0.212005	0.324273
0	H	0.417039	0.792688	0.810992
0	C	0.960908	0.759061	0.250175
0	C	0.588898	0.244142	0.736754
0	C	0.0894868	0.262929	0.221298
0	C	0.462572	0.741678	0.70874
0	H	0.915313	0.814884	0.243008
0	H	0.634675	0.188374	0.729139
0	H	0.135159	0.318932	0.228388
0	H	0.418134	0.685373	0.716274
0	C	0.963786	0.73586	0.329932
0	C	0.58646	0.266672	0.816584
0	C	0.0873526	0.239313	0.141747
0	C	0.463783	0.764798	0.629023
0	C	0.787864	0.654355	0.305902
0	C	0.76301	0.348026	0.793479
0	C	0.264299	0.159845	0.16683
0	C	0.286546	0.844639	0.652979
0	H	0.752283	0.595144	0.307098
0	H	0.799468	0.406927	0.795955
0	H	0.302572	0.10148	0.164881
0	H	0.248902	0.903184	0.651133
0	H	0.730029	0.690695	0.337648
0	H	0.820707	0.310845	0.824578
0	H	0.320779	0.19812	0.135861
0	H	0.229376	0.807411	0.621622
0	C	0.791838	0.683759	0.230545
0	C	0.758353	0.320217	0.717738
0	C	0.258649	0.187905	0.242599
0	C	0.291934	0.816012	0.72849
0	C	0.702621	0.699854	0.191823
0	C	0.847154	0.305707	0.678093
0	C	0.34701	0.20295	0.282494
0	C	0.203549	0.79995	0.768
0	H	0.618807	0.694049	0.212579
0	H	0.931286	0.311587	0.698272
0	H	0.431234	0.19709	0.262537
0	H	0.119252	0.805357	0.747982
0	H	0.705345	0.720925	0.137975
0	H	0.843262	0.286006	0.623832
0	H	0.343354	0.222914	0.336683
0	H	0.207885	0.77944	0.822007
0	C	0.224911	0.564027	0.518858
0	C	0.329721	0.435133	0.0108779
0	C	0.830445	0.0676912	0.949678
0	C	0.724015	0.937885	0.439956
0	H	0.148345	0.56363	0.550357
0	H	0.40416	0.429923	0.0440712
0	H	0.903027	0.0746877	0.915068
0	H	0.647873	0.938433	0.408123
0	H	0.291351	0.587288	0.553114
0	H	0.259136	0.414085	0.042462
0	H	0.75787	0.0878557	0.91943
0	H	0.790287	0.914185	0.405762
0	H	0.244741	0.503309	0.507631
0	H	0.317023	0.497129	0.0014762
0	H	0.820482	0.00544298	0.958918
0	H	0.744276	0.998498	0.45115
0	C	0.188352	0.699095	0.46792
0	C	0.363839	0.301721	0.955848
0	C	0.864426	0.20138	0.00339747
0	C	0.687583	0.802831	0.491011
0	H	0.187364	0.710873	0.525736
0	H	0.364925	0.287748	0.0131232
0	H	0.864564	0.214424	0.945947
0	H	0.687118	0.79069	0.433307
0	H	0.250764	0.737898	0.443643
0	H	0.300787	0.264113	0.93063
0	H	0.801331	0.238989	0.0286482
0	H	0.750241	0.764451	0.515598
0	C	0.0809874	0.716858	0.358586
0	C	0.46959	0.285974	0.845763
0	C	0.970691	0.219381	0.112762
0	C	0.580486	0.784881	0.600195
0	H	0.145641	0.757963	0.340065
0	H	0.404369	0.245562	0.826616
0	H	0.905561	0.260335	0.131167
0	H	0.645893	0.74444	0.618937
0	C	0.275258	0.511358	0.220757
0	C	0.280093	0.493617	0.708994
0	C	0.784203	0.0112457	0.251861
0	C	0.769535	0.992791	0.738682
0	C	0.262051	0.426706	0.212082
0	C	0.297731	0.577821	0.699859
0	C	0.803996	0.927358	0.260958
0	C	0.754304	0.0772744	0.747394
0	H	0.178727	0.406283	0.230303
0	H	0.377947	0.597437	0.723652
0	H	0.88484	0.908577	0.237478
0	H	0.66962	0.0970911	0.731299
0	H	0.323858	0.393882	0.24297
0	H	0.23153	0.612277	0.724857
0	H	0.739003	0.892051	0.235832
0	H	0.813419	0.110489	0.714778
0	H	0.269871	0.409237	0.155904
0	H	0.301553	0.594302	0.642837
0	H	0.807993	0.910703	0.317925
0	H	0.764904	0.095478	0.803189
0	C	0.417226	0.759592	0.316791
0	C	0.13385	0.245365	0.805736
0	C	0.635517	0.258923	0.153488
0	C	0.914898	0.743891	0.642111
0	C	0.404003	0.844479	0.323549
0	C	0.146524	0.160407	0.811975
0	C	0.648866	0.343884	0.147193
0	C	0.90226	0.658977	0.634897
0	C	0.302185	0.877432	0.343056
0	C	0.24974	0.126742	0.826884
0	C	0.75233	0.377822	0.13349
0	C	0.800617	0.625607	0.615675
0	H	0.230521	0.839725	0.352521
0	H	0.32253	0.163931	0.834416
0	H	0.825846	0.340942	0.126905
0	H	0.728394	0.662851	0.60631
0	C	0.292917	0.95765	0.349598
0	C	0.259054	0.046363	0.831439
0	C	0.760954	0.458277	0.128981
0	C	0.792124	0.545361	0.609142
0	H	0.213368	0.983617	0.36506
0	H	0.339559	0.0197802	0.842802
0	H	0.841521	0.485298	0.118629
0	H	0.712984	0.518962	0.593514
0	C	0.384526	0.00510349	0.336412
0	C	0.165956	0.999495	0.821269
0	C	0.667133	0.504792	0.137848
0	C	0.88406	0.498257	0.622229
0	H	0.376809	0.0678648	0.341843
0	H	0.173678	0.936581	0.824772
0	H	0.674398	0.567812	0.133908
0	H	0.876748	0.435404	0.617051
0	C	0.485705	0.972423	0.316069
0	C	0.0630527	0.0329521	0.806349
0	C	0.564192	0.470974	0.15203
0	C	0.985116	0.531369	0.642166
0	H	0.556895	0.0100547	0.305168
0	H	0.990829	0.995746	0.797856
0	H	0.491347	0.507853	0.159942
0	H	0.0564227	0.494002	0.653013
0	C	0.495752	0.892175	0.30945
0	C	0.0530074	0.113323	0.801479
0	C	0.554683	0.390596	0.1569
0	C	0.99459	0.611658	0.648549
0	H	0.574362	0.866158	0.293394
0	H	0.973286	0.139875	0.789157
0	H	0.474748	0.363685	0.168569
0	H	0.0730586	0.638099	0.664128
0	C	0.499232	0.570717	0.44542
0	C	0.0525791	0.430006	0.938951
0	C	0.552086	0.0757626	0.0230667
0	C	0.00116038	0.927093	0.516697
0	C	0.589111	0.600996	0.490649
0	C	0.968192	0.401068	0.9891
0	C	0.47188	0.103474	0.969496
0	C	0.0878485	0.900091	0.467363
0	H	0.558381	0.64145	0.532046
0	H	0.000805445	0.355752	0.0252416
0	H	0.507832	0.147721	0.93336
0	H	0.0557144	0.860001	0.426344
0	H	0.650424	0.633819	0.459486
0	H	0.897175	0.375268	0.961082
0	H	0.398668	0.129976	0.99434
0	H	0.154111	0.869051	0.495937
0	H	0.632215	0.552493	0.518003
0	H	0.936696	0.449274	0.0226018
0	H	0.443334	0.0545027	0.935795
0	H	0.124893	0.950384	0.439002
0	C	0.0598685	0.584006	0.10806
0	C	0.495524	0.416279	0.594869
0	C	0.992592	0.0882136	0.363641
0	C	0.562239	0.920549	0.848592
0	C	0.159116	0.602336	0.0649122
0	C	0.397797	0.399139	0.550075
0	C	0.893801	0.105733	0.407459
0	C	0.660011	0.900014	0.892323
0	H	0.237516	0.590158	0.0933782
0	H	0.318489	0.41389	0.576356
0	H	0.814981	0.0967435	0.378348
0	H	0.73956	0.90959	0.864103
0	H	0.161693	0.664326	0.0507235
0	H	0.393338	0.336938	0.537016
0	H	0.893576	0.16681	0.424705
0	H	0.659177	0.838125	0.906968
0	H	0.158813	0.569239	0.0147076
0	H	0.403199	0.430773	0.498961
0	H	0.892673	0.0696629	0.455969
0	H	0.661562	0.933889	0.941997
0	C	0.108846	0.840665	0.202263
0	C	0.443821	0.164834	0.681974
0	C	0.945026	0.343001	0.274651
0	C	0.611379	0.662052	0.758785
0	C	0.221969	0.83489	0.172782
0	C	0.329525	0.170909	0.65425
0	C	0.831412	0.337511	0.303457
0	C	0.726207	0.667932	0.785679
0	C	0.279694	0.903657	0.1579
0	C	0.271225	0.102549	0.638723
0	C	0.77638	0.406464	0.321481
0	C	0.782788	0.599404	0.803194
0	H	0.242678	0.959569	0.170942
0	H	0.308769	0.0462517	0.649283
0	H	0.815639	0.462233	0.311095
0	H	0.743353	0.543348	0.794547
0	C	0.38445	0.899684	0.126854
0	C	0.164809	0.107171	0.610136
0	C	0.671544	0.402927	0.352362
0	C	0.889577	0.603628	0.831255
0	H	0.430812	0.952863	0.114895
0	H	0.117879	0.0541811	0.598302
0	H	0.627205	0.45619	0.366689
0	H	0.934846	0.550672	0.84542
0	C	0.430992	0.827621	0.110497
0	C	0.117112	0.179467	0.596339
0	C	0.621951	0.331061	0.365397
0	C	0.939858	0.675749	0.841778
0	H	0.512032	0.825121	0.0849894
0	H	0.0345732	0.182487	0.572905
0	H	0.540862	0.329039	0.390955
0	H	0.022754	0.67855	0.864796
0	C	0.374477	0.759039	0.126634
0	C	0.174524	0.247621	0.61265
0	C	0.675512	0.262389	0.345889
0	C	0.88452	0.743976	0.823028
0	H	0.411761	0.702767	0.115146
0	H	0.136585	0.304078	0.603028
0	H	0.635571	0.206426	0.354595
0	H	0.924665	0.800234	0.829545
0	C	0.270174	0.762612	0.15834
0	C	0.280295	0.243402	0.64231
0	C	0.780117	0.265551	0.314445
0	C	0.777767	0.740076	0.79487
0	H	0.225616	0.709143	0.172992
0	H	0.325103	0.296528	0.65735
0	H	0.822401	0.21204	0.297553
0	H	0.73381	0.793318	0.778891
