#******************************************
#
# CIF file created by Zeo++
# Zeo++ is an open source package to
# analyze microporous materials
#
#*******************************************

_cell_length_a		17.4647(0)
_cell_length_b		17.6431(0)
_cell_length_c		9.74071(0)
_cell_angle_alpha		90(0)
_cell_angle_beta		90(0)
_cell_angle_gamma		90(0)

_symmetry_space_group_name_H-M		'P1'
_symmetry_Int_Tables_number		1
_symmetry_cell_setting		Monoclinic

loop_
_symmetry_equiv_pos_as_xyz
'+x,+y,+z'

loop_
_atom_site_label
_atom_site_type_symbol
_atom_site_fract_x
_atom_site_fract_y
_atom_site_fract_z
0	N	0.407222	0.871302	0.553771
0	N	0.622127	0.145427	0.0517335
0	N	0.150621	0.404088	0.304503
0	N	0.872828	0.61739	0.809342
0	H	0.377692	0.890435	0.469445
0	H	0.652249	0.128462	0.966396
0	H	0.134621	0.373828	0.218975
0	H	0.893846	0.645839	0.725275
0	C	0.222081	0.9317	0.630775
0	C	0.807651	0.0864949	0.124715
0	C	0.0919866	0.219871	0.379164
0	C	0.938277	0.799362	0.885584
0	H	0.19561	0.944475	0.529233
0	H	0.834729	0.0758118	0.0228085
0	H	0.0802794	0.192587	0.278115
0	H	0.951462	0.824627	0.783304
0	O	0.16751	0.933251	0.740943
0	O	0.861541	0.0832703	0.235857
0	O	0.0903638	0.167074	0.49123
0	O	0.941537	0.854039	0.994562
0	N	0.506779	0.835981	0.691703
0	N	0.522979	0.180487	0.190592
0	N	0.188207	0.50178	0.442679
0	N	0.836424	0.519084	0.947586
0	H	0.562313	0.819362	0.717636
0	H	0.46779	0.197995	0.216733
0	H	0.205559	0.556651	0.468139
0	H	0.819242	0.46423	0.972927
0	O	0.302498	0.0362133	0.56367
0	O	0.725358	0.985078	0.0488045
0	O	0.98829	0.300618	0.306201
0	O	0.0422585	0.717475	0.819816
0	C	0.280626	0.990807	0.680756
0	C	0.749218	0.0261954	0.169922
0	C	0.0312881	0.277622	0.425959
0	C	0.996588	0.74027	0.93645
0	H	0.252597	0.0296569	0.757042
0	H	0.777744	0.984665	0.24078
0	H	0.990174	0.249355	0.498407
0	H	0.0362706	0.767334	0.012967
0	O	0.414556	0.0102326	0.677968
0	O	0.615854	0.00492998	0.175498
0	O	0.0095117	0.409614	0.43056
0	O	0.0132131	0.607209	0.934005
0	C	0.358008	0.961256	0.737197
0	C	0.672705	0.0543343	0.23214
0	C	0.060027	0.353678	0.486585
0	C	0.964998	0.664332	0.99292
0	H	0.362543	0.968171	0.851163
0	H	0.670105	0.0466811	0.346003
0	H	0.0530321	0.356586	0.600761
0	H	0.971872	0.659855	0.106866
0	O	0.526422	0.845796	0.452904
0	O	0.503333	0.173767	0.951477
0	O	0.181009	0.520991	0.203524
0	O	0.845211	0.499714	0.708662
0	C	0.377246	0.878372	0.695748
0	C	0.652262	0.137365	0.19342
0	C	0.143657	0.374016	0.446103
0	C	0.880964	0.646871	0.951313
0	C	0.304042	0.829297	0.715742
0	C	0.724973	0.186958	0.215004
0	C	0.19388	0.301903	0.466329
0	C	0.833156	0.720473	0.971557
0	H	0.279091	0.839807	0.81946
0	H	0.750137	0.17541	0.318176
0	H	0.182739	0.276845	0.569599
0	H	0.844285	0.744841	0.0753296
0	O	0.249412	0.856394	0.613766
0	O	0.779831	0.161853	0.111797
0	O	0.167817	0.247801	0.363325
0	O	0.861518	0.774156	0.869764
0	O	0.449759	0.843791	0.907248
0	O	0.579716	0.169524	0.406024
0	O	0.177196	0.44567	0.658301
0	O	0.845234	0.575777	0.16306
0	C	0.313982	0.745849	0.687397
0	C	0.71408	0.27064	0.189872
0	C	0.278315	0.312519	0.440032
0	C	0.748698	0.712259	0.942925
0	H	0.259805	0.71983	0.652106
0	H	0.767068	0.296968	0.149645
0	H	0.304663	0.259827	0.400422
0	H	0.723705	0.766157	0.90586
0	H	0.331426	0.714806	0.780706
0	H	0.699359	0.300939	0.285525
0	H	0.309283	0.327141	0.535293
0	H	0.716929	0.696184	0.0365265
0	H	0.35603	0.733539	0.606656
0	H	0.669752	0.283649	0.113757
0	H	0.291204	0.356228	0.363406
0	H	0.73549	0.670372	0.863114
0	C	0.37781	0.0687889	0.593497
0	C	0.650831	0.950919	0.0794563
0	C	0.953852	0.374381	0.337281
0	C	0.0733926	0.642238	0.850059
0	C	0.370722	0.139583	0.679917
0	C	0.660503	0.876378	0.153764
0	C	0.879645	0.364701	0.414997
0	C	0.14473	0.647765	0.937239
0	H	0.326112	0.134722	0.75898
0	H	0.704329	0.878913	0.234375
0	H	0.884937	0.324769	0.500961
0	H	0.141376	0.693625	0.0133229
0	H	0.357715	0.190186	0.618322
0	H	0.676137	0.829885	0.084069
0	H	0.832771	0.344519	0.349079
0	H	0.196682	0.657376	0.875761
0	H	0.424938	0.151125	0.734679
0	H	0.60666	0.85965	0.204761
0	H	0.860738	0.41906	0.459442
0	H	0.153725	0.594684	0.995407
0	C	0.420829	0.0760491	0.460372
0	C	0.604063	0.949363	0.949858
0	C	0.950396	0.42004	0.207033
0	C	0.0800982	0.599328	0.717198
0	H	0.476738	0.104146	0.476524
0	H	0.548879	0.920168	0.967409
0	H	0.921888	0.475107	0.225221
0	H	0.108655	0.544087	0.733199
0	H	0.388918	0.110714	0.38576
0	H	0.633646	0.918396	0.866986
0	H	0.917384	0.39067	0.126604
0	H	0.114626	0.630826	0.641706
0	H	0.432764	0.0205238	0.41386
0	H	0.590554	0.00672117	0.912811
0	H	0.00782297	0.432594	0.166661
0	H	0.0237827	0.587449	0.671565
0	C	0.105185	0.879644	0.733786
0	C	0.923926	0.136907	0.232431
0	C	0.144074	0.104933	0.485785
0	C	0.890349	0.918028	0.984729
0	H	0.0700921	0.889732	0.642087
0	H	0.95953	0.128071	0.140961
0	H	0.133149	0.0692692	0.395704
0	H	0.903076	0.951669	0.892811
0	H	0.0731339	0.89183	0.828063
0	H	0.955369	0.123452	0.326788
0	H	0.132064	0.074369	0.581421
0	H	0.903242	0.949844	0.0786758
0	H	0.127215	0.821344	0.735159
0	H	0.902002	0.195235	0.235712
0	H	0.203146	0.126266	0.485489
0	H	0.830474	0.898922	0.984655
0	C	0.484305	0.85162	0.552355
0	C	0.54543	0.16635	0.050717
0	C	0.173237	0.479529	0.302982
0	C	0.852138	0.541176	0.808146
0	C	0.446344	0.850276	0.784252
0	C	0.583169	0.164421	0.282827
0	C	0.171734	0.442346	0.535124
0	C	0.851645	0.578868	0.0400283
0	N	0.27748	0.765798	0.342671
0	N	0.750917	0.252984	0.844795
0	N	0.258683	0.273802	0.0958792
0	N	0.77252	0.749377	0.598578
0	H	0.265815	0.807291	0.414126
0	H	0.762563	0.211507	0.91632
0	H	0.216579	0.262793	0.167292
0	H	0.814115	0.758897	0.671501
0	O	0.337544	0.986581	0.0996426
0	O	0.693027	0.0310329	0.603795
0	O	0.0351269	0.332834	0.858177
0	O	0.995663	0.688458	0.361805
0	C	0.310466	0.950715	0.222443
0	C	0.719235	0.0678427	0.726185
0	C	0.0724334	0.306234	0.980057
0	C	0.958878	0.715383	0.484039
0	H	0.30726	0.990177	0.311647
0	H	0.722413	0.0291742	0.816667
0	H	0.0335701	0.303303	0.0707971
0	H	0.997984	0.718046	0.574359
0	N	0.264806	0.6548	0.224527
0	N	0.764165	0.363821	0.726168
0	N	0.370344	0.259231	0.976876
0	N	0.661167	0.763335	0.478702
0	H	0.245207	0.600237	0.203978
0	H	0.783568	0.41845	0.705824
0	H	0.424826	0.238401	0.955518
0	H	0.606591	0.783872	0.456748
0	O	0.18012	0.923992	0.28789
0	O	0.849636	0.0958956	0.792039
0	O	0.100184	0.176628	0.0445278
0	O	0.932203	0.845278	0.547985
0	C	0.23263	0.919616	0.173616
0	C	0.797007	0.0992902	0.677663
0	C	0.103384	0.229057	0.930538
0	C	0.928469	0.792714	0.434429
0	H	0.209208	0.956783	0.0892324
0	H	0.820821	0.0619893	0.593905
0	H	0.0652709	0.206162	0.847135
0	H	0.966735	0.815428	0.350671
0	O	0.154821	0.811306	0.173595
0	O	0.874309	0.207908	0.675314
0	O	0.212824	0.15208	0.926403
0	O	0.819642	0.870428	0.42971
0	C	0.229219	0.835658	0.130171
0	C	0.799921	0.183	0.632832
0	C	0.187693	0.225812	0.88438
0	C	0.844314	0.796567	0.387772
0	H	0.22936	0.82799	0.0163771
0	H	0.799518	0.190114	0.518937
0	H	0.194383	0.226254	0.770372
0	H	0.837829	0.796152	0.273695
0	O	0.225166	0.659774	0.456069
0	O	0.802128	0.359451	0.958536
0	O	0.364922	0.220134	0.208653
0	O	0.665681	0.802118	0.710697
0	C	0.292476	0.785786	0.196886
0	C	0.736431	0.232816	0.698923
0	C	0.238471	0.288411	0.950072
0	C	0.793105	0.734268	0.453155
0	O	0.364489	0.895726	0.265762
0	O	0.664527	0.122743	0.767386
0	O	0.128351	0.360052	0.0207955
0	O	0.902641	0.661998	0.52503
0	C	0.370085	0.828009	0.180308
0	C	0.659045	0.190284	0.681456
0	C	0.196123	0.365338	0.933596
0	C	0.835018	0.657056	0.437319
0	H	0.377707	0.84707	0.0712296
0	H	0.651917	0.170987	0.572465
0	H	0.176089	0.372871	0.825059
0	H	0.855191	0.649224	0.329004
0	O	0.306393	0.692496	0.00698203
0	O	0.723174	0.325796	0.508444
0	O	0.332359	0.300616	0.75935
0	O	0.699839	0.722704	0.261261
0	C	0.438662	0.784414	0.230984
0	C	0.590012	0.233595	0.730982
0	C	0.240632	0.433208	0.983044
0	C	0.789822	0.589667	0.486808
0	H	0.487361	0.823275	0.24982
0	H	0.540832	0.194785	0.745449
0	H	0.20185	0.482114	0.998732
0	H	0.828194	0.540734	0.504971
0	H	0.458018	0.742917	0.154289
0	H	0.572062	0.276449	0.65569
0	H	0.283621	0.45089	0.907104
0	H	0.747657	0.571552	0.409681
0	H	0.42869	0.754706	0.32821
0	H	0.598801	0.261686	0.830196
0	H	0.269595	0.424027	0.0815796
0	H	0.759877	0.599563	0.584156
0	C	0.121923	0.865187	0.271808
0	C	0.907663	0.154746	0.77418
0	C	0.159189	0.118868	0.0252062
0	C	0.873417	0.903336	0.528629
0	C	0.0510175	0.898648	0.206465
0	C	0.978601	0.121168	0.709033
0	C	0.124855	0.0490212	0.959229
0	C	0.908161	0.972922	0.462351
0	H	0.0404232	0.956451	0.24312
0	H	0.998089	0.0707928	0.764954
0	H	0.0678395	0.0368233	0.00077016
0	H	0.964481	0.985893	0.506166
0	H	0.999586	0.864031	0.227932
0	H	0.0261359	0.162584	0.706646
0	H	0.161161	0.998377	0.975721
0	H	0.87087	0.0231509	0.475329
0	H	0.0551177	0.900655	0.0936564
0	H	0.969188	0.104758	0.601541
0	H	0.11974	0.0545845	0.847099
0	H	0.915093	0.966306	0.350717
0	C	0.111256	0.826139	0.407678
0	C	0.919186	0.194687	0.908994
0	C	0.199881	0.10647	0.159454
0	C	0.832838	0.915625	0.662943
0	H	0.164449	0.823242	0.468457
0	H	0.866339	0.198647	0.970511
0	H	0.204608	0.158527	0.22156
0	H	0.829594	0.863855	0.726045
0	H	0.0931006	0.76671	0.3913
0	H	0.937863	0.253869	0.890881
0	H	0.259287	0.0872452	0.140394
0	H	0.772895	0.933179	0.64411
0	H	0.0682781	0.8541	0.473365
0	H	0.962298	0.16683	0.974507
0	H	0.171458	0.0637175	0.224294
0	H	0.86026	0.959451	0.72693
0	C	0.410467	0.0249724	0.111322
0	C	0.621379	0.990368	0.615155
0	C	0.995695	0.404691	0.870085
0	C	0.035951	0.617172	0.374794
0	H	0.403354	0.0762335	0.173418
0	H	0.629089	0.940867	0.682116
0	H	0.944676	0.397577	0.934514
0	H	0.0875048	0.62555	0.437252
0	H	0.423917	0.0395187	0.00433475
0	H	0.610236	0.972674	0.508857
0	H	0.979592	0.417135	0.76341
0	H	0.0511649	0.603745	0.268089
0	H	0.45387	0.986771	0.154265
0	H	0.575993	0.0280841	0.652472
0	H	0.0342946	0.44836	0.910568
0	H	0.998143	0.573641	0.418013
0	C	0.251169	0.690979	0.35419
0	C	0.77694	0.327944	0.856369
0	C	0.333818	0.246404	0.106802
0	C	0.697288	0.776109	0.609063
0	C	0.290903	0.706929	0.124526
0	C	0.738251	0.311575	0.626262
0	C	0.317889	0.285729	0.877106
0	C	0.713931	0.737169	0.379353
