#******************************************
#
# CIF file created by Zeo++
# Zeo++ is an open source package to
# analyze microporous materials
#
#*******************************************

_cell_length_a		22.749(0)
_cell_length_b		9.49301(0)
_cell_length_c		19.6023(0)
_cell_angle_alpha		90(0)
_cell_angle_beta		120.527(0)
_cell_angle_gamma		90(0)

_symmetry_space_group_name_H-M		'P1'
_symmetry_Int_Tables_number		1
_symmetry_cell_setting		Monoclinic

loop_
_symmetry_equiv_pos_as_xyz
'+x,+y,+z'

loop_
_atom_site_label
_atom_site_type_symbol
_atom_site_fract_x
_atom_site_fract_y
_atom_site_fract_z
0	O	0.219393	0.0572092	0.0691309
0	O	0.858711	0.0574101	0.49322
0	O	0.870112	0.974387	0.997203
0	O	0.23081	0.973241	0.573077
0	O	0.717746	0.557224	0.0677033
0	O	0.360745	0.55737	0.495118
0	O	0.371752	0.474402	0.998622
0	O	0.728781	0.473324	0.57119
0	O	0.189693	0.146617	0.188388
0	O	0.887923	0.149885	0.374923
0	O	0.899761	0.884362	0.878002
0	O	0.201558	0.881253	0.691409
0	O	0.687776	0.647461	0.186904
0	O	0.390412	0.649775	0.376458
0	O	0.401665	0.383527	0.879496
0	O	0.699073	0.381356	0.689882
0	N	0.35218	0.938323	0.223555
0	N	0.72658	0.938017	0.339582
0	N	0.73736	0.0928297	0.842777
0	N	0.363025	0.0927125	0.726783
0	N	0.850363	0.438909	0.222441
0	N	0.228857	0.438769	0.340687
0	N	0.239156	0.592244	0.843891
0	N	0.860755	0.591962	0.725685
0	C	0.334778	0.074286	0.17704
0	C	0.743041	0.0740223	0.386128
0	C	0.754723	0.956947	0.889354
0	C	0.346479	0.95672	0.680219
0	C	0.833167	0.57492	0.17604
0	C	0.245187	0.574533	0.387373
0	C	0.256329	0.456316	0.890361
0	C	0.844336	0.456221	0.678979
0	N	0.318551	0.859992	0.95026
0	N	0.762479	0.855294	0.613387
0	N	0.770967	0.171359	0.116131
0	N	0.327104	0.175718	0.453081
0	N	0.817332	0.361236	0.949166
0	N	0.26369	0.355769	0.614259
0	N	0.272188	0.670123	0.117233
0	N	0.825909	0.675284	0.452228
0	O	0.207733	0.312858	0.118754
0	O	0.869359	0.314147	0.444913
0	O	0.881803	0.718658	0.94795
0	O	0.220061	0.716781	0.621472
0	O	0.70607	0.813273	0.117198
0	O	0.372308	0.813331	0.447184
0	O	0.383479	0.218232	0.94954
0	O	0.717105	0.217606	0.619187
0	N	0.382458	0.893974	0.0145934
0	N	0.697875	0.88644	0.5493
0	N	0.707062	0.137401	0.0518
0	N	0.3917	0.144463	0.517158
0	N	0.881263	0.39476	0.013688
0	N	0.199102	0.386475	0.549904
0	N	0.208257	0.636617	0.0527141
0	N	0.890487	0.644466	0.516575
0	N	0.334489	0.933493	0.273223
0	N	0.744036	0.934513	0.289694
0	N	0.754978	0.0974243	0.793047
0	N	0.345544	0.0963279	0.776644
0	N	0.832299	0.433737	0.271755
0	N	0.246418	0.435534	0.290902
0	N	0.257155	0.597167	0.794507
0	N	0.843165	0.595302	0.775454
0	C	0.271161	0.908877	0.966952
0	C	0.808902	0.907959	0.59609
0	C	0.818348	0.122448	0.0994319
0	C	0.280663	0.122975	0.470322
0	C	0.769905	0.409931	0.965847
0	C	0.31021	0.408349	0.597101
0	C	0.319604	0.621406	0.100538
0	C	0.77937	0.622616	0.469326
0	C	0.305363	0.975248	0.0439707
0	C	0.773399	0.973232	0.518871
0	C	0.784139	0.0561009	0.0224091
0	C	0.316143	0.0575635	0.5475
0	C	0.804024	0.475637	0.0430454
0	C	0.274881	0.473059	0.519727
0	C	0.285473	0.555724	0.0233337
0	C	0.814675	0.557766	0.546661
0	C	0.376284	0.966417	0.0721686
0	C	0.702664	0.96035	0.491154
0	C	0.71322	0.0649486	0.99422
0	C	0.386888	0.0703942	0.575238
0	C	0.874971	0.466763	0.0713203
0	C	0.20411	0.460005	0.49178
0	C	0.214531	0.564601	0.995074
0	C	0.885452	0.570769	0.574629
0	C	0.278967	0.034745	0.0900069
0	C	0.79925	0.0346881	0.472834
0	C	0.810533	0.99664	0.976365
0	C	0.290271	0.99605	0.593503
0	C	0.777418	0.53506	0.0889239
0	C	0.301136	0.534761	0.474138
0	C	0.312077	0.496344	0.977442
0	C	0.788393	0.496006	0.592208
0	C	0.233222	0.220975	0.166267
0	C	0.844156	0.222671	0.396989
0	C	0.856275	0.810182	0.900248
0	C	0.245291	0.80827	0.669348
0	C	0.731471	0.721605	0.164839
0	C	0.34681	0.722461	0.398937
0	C	0.358007	0.30962	0.901656
0	C	0.742644	0.30851	0.667411
0	C	0.305569	0.168803	0.218172
0	C	0.771833	0.169804	0.345012
0	C	0.78391	0.862217	0.84828
0	C	0.317644	0.861051	0.721328
0	C	0.803752	0.669262	0.217058
0	C	0.27438	0.670437	0.34668
0	C	0.285726	0.361761	0.849405
0	C	0.815103	0.360418	0.719663
0	H	0.339703	0.262253	0.247778
0	H	0.737243	0.262689	0.315547
0	H	0.749805	0.768694	0.818795
0	H	0.35219	0.768091	0.750789
0	H	0.837847	0.762674	0.246884
0	H	0.240082	0.763909	0.317498
0	H	0.25165	0.268266	0.819693
0	H	0.849353	0.266868	0.748833
0	O	0.196835	0.969996	0.268675
0	O	0.881749	0.972935	0.295302
0	O	0.892581	0.0606608	0.797555
0	O	0.207851	0.0583832	0.771017
0	O	0.694588	0.472387	0.267818
0	O	0.383786	0.475287	0.29532
0	O	0.394815	0.558301	0.798412
0	O	0.705813	0.556046	0.771017
0	C	0.400056	0.137652	0.180519
0	C	0.677206	0.133417	0.3831
0	C	0.689436	0.893693	0.885884
0	C	0.412246	0.897101	0.68317
0	C	0.898259	0.638635	0.179109
0	C	0.179285	0.633825	0.384389
0	C	0.191225	0.392694	0.887303
0	C	0.910178	0.396713	0.681892
0	C	0.197135	0.895456	0.912427
0	C	0.883243	0.898801	0.649374
0	C	0.892382	0.135824	0.153956
0	C	0.206329	0.13204	0.416994
0	C	0.695851	0.397356	0.911289
0	C	0.384585	0.400517	0.650374
0	C	0.393668	0.633926	0.155092
0	C	0.705001	0.630347	0.416008
0	H	0.179066	0.968975	0.861885
0	H	0.901967	0.980365	0.696099
0	H	0.910484	0.0617561	0.204264
0	H	0.187648	0.050227	0.370408
0	H	0.677971	0.47044	0.86049
0	H	0.402942	0.481623	0.697381
0	H	0.411575	0.560304	0.205661
0	H	0.686685	0.548903	0.36918
0	H	0.182862	0.789213	0.886062
0	H	0.899115	0.796762	0.680454
0	H	0.906648	0.241831	0.18064
0	H	0.190435	0.233913	0.385739
0	H	0.68111	0.291051	0.885082
0	H	0.401182	0.298344	0.681193
0	H	0.408407	0.740003	0.181609
0	H	0.688386	0.732309	0.384962
0	H	0.168225	0.918161	0.942447
0	H	0.910625	0.914229	0.616863
0	H	0.921249	0.11374	0.123819
0	H	0.17891	0.116861	0.449482
0	H	0.667122	0.421457	0.941373
0	H	0.411728	0.418131	0.617718
0	H	0.422353	0.61042	0.124887
0	H	0.677823	0.613088	0.448652
0	C	0.302115	0.0675508	0.278454
0	C	0.775842	0.069453	0.284622
0	C	0.787308	0.963232	0.787871
0	C	0.313676	0.961481	0.781711
0	C	0.800028	0.567861	0.277122
0	C	0.278215	0.570567	0.285978
0	C	0.289387	0.462928	0.789206
0	C	0.811307	0.460355	0.780363
0	H	0.329701	0.107077	0.3414
0	H	0.748434	0.109204	0.221715
0	H	0.759682	0.923557	0.724953
0	H	0.341056	0.921723	0.844616
0	H	0.827784	0.606808	0.340171
0	H	0.250565	0.610712	0.223154
0	H	0.261591	0.42382	0.726189
0	H	0.838931	0.420199	0.843184
0	C	0.442513	0.837714	0.0172406
0	C	0.638721	0.828645	0.548286
0	C	0.646991	0.193528	0.0491666
0	C	0.450853	0.202295	0.518181
0	C	0.941404	0.340335	0.0156792
0	C	0.139807	0.330688	0.549511
0	C	0.148099	0.690898	0.0507383
0	C	0.949786	0.700297	0.51699
0	C	0.226303	0.0499779	0.248781
0	C	0.851799	0.0528135	0.314511
0	C	0.863117	0.980789	0.81749
0	C	0.237721	0.978312	0.751811
0	C	0.72422	0.551234	0.247619
0	C	0.354042	0.554079	0.315315
0	C	0.365183	0.479543	0.818657
0	C	0.735494	0.477017	0.751015
0	C	0.378945	0.271426	0.130042
0	C	0.695905	0.265689	0.434771
0	C	0.710517	0.759914	0.936366
0	C	0.393395	0.764934	0.631394
0	C	0.876502	0.771176	0.127562
0	C	0.198228	0.765031	0.436909
0	C	0.212963	0.260164	0.938854
0	C	0.891084	0.26563	0.629263
0	H	0.340601	0.251634	0.0674733
0	H	0.719622	0.241607	0.498473
0	H	0.749102	0.779593	0.998855
0	H	0.370105	0.789166	0.567753
0	H	0.837517	0.750134	0.0653902
0	H	0.222763	0.739514	0.500514
0	H	0.252194	0.281079	0.000940015
0	H	0.86697	0.291324	0.565714
0	H	0.422206	0.321275	0.129144
0	H	0.650492	0.328829	0.420351
0	H	0.667311	0.71049	0.937567
0	H	0.438665	0.701069	0.646111
0	H	0.919284	0.819679	0.125044
0	H	0.152802	0.826831	0.423881
0	H	0.170249	0.212075	0.941678
0	H	0.936379	0.203092	0.642579
0	H	0.357601	0.351321	0.15193
0	H	0.731075	0.335652	0.428173
0	H	0.73154	0.679715	0.914259
0	H	0.357786	0.695587	0.637532
0	H	0.855904	0.852686	0.14948
0	H	0.232649	0.836734	0.429972
0	H	0.233243	0.178353	0.916724
0	H	0.856221	0.194525	0.635747
0	C	0.430098	0.0278755	0.147425
0	C	0.648111	0.0200019	0.415689
0	C	0.659405	0.00352826	0.918958
0	C	0.441419	0.01046	0.650635
0	C	0.928677	0.528411	0.146635
0	C	0.149757	0.519782	0.416188
0	C	0.160819	0.502981	0.919761
0	C	0.939779	0.510715	0.650153
0	H	0.457153	0.941733	0.191189
0	H	0.621936	0.933885	0.371748
0	H	0.63238	0.0896646	0.875176
0	H	0.467709	0.0964294	0.694648
0	H	0.955589	0.442684	0.190716
0	H	0.123926	0.434015	0.37191
0	H	0.133931	0.588693	0.875666
0	H	0.965726	0.596336	0.69451
0	H	0.470898	0.0774137	0.139831
0	H	0.606746	0.0669909	0.423201
0	H	0.618574	0.954079	0.92652
0	H	0.482699	0.963313	0.643021
0	H	0.969508	0.578035	0.139091
0	H	0.108231	0.566652	0.423452
0	H	0.119968	0.453431	0.927286
0	H	0.98123	0.463693	0.642793
0	C	0.497735	0.705409	0.961242
0	C	0.586724	0.687842	0.605179
0	C	0.59171	0.325373	0.105249
0	C	0.502809	0.343398	0.461358
0	C	0.996259	0.210421	0.95828
0	C	0.0881022	0.192259	0.607721
0	C	0.0931822	0.820338	0.108219
0	C	0.00146312	0.839055	0.458867
0	H	0.49559	0.643396	0.91288
0	H	0.590987	0.619559	0.652541
0	H	0.593812	0.387108	0.153677
0	H	0.498526	0.41186	0.414044
0	H	0.993633	0.148436	0.909619
0	H	0.0926971	0.124055	0.655301
0	H	0.0957636	0.882044	0.156944
0	H	0.996855	0.907455	0.411351
0	C	0.453953	0.172971	0.26631
0	C	0.623388	0.169085	0.297358
0	C	0.635539	0.858352	0.800101
0	C	0.466048	0.861163	0.768879
0	C	0.952221	0.676374	0.264469
0	C	0.125595	0.671217	0.298866
0	C	0.137262	0.354928	0.801953
0	C	0.963846	0.359056	0.767381
0	H	0.468163	0.0817721	0.305971
0	H	0.610479	0.0791698	0.257071
0	H	0.621377	0.949471	0.760388
0	H	0.478971	0.95094	0.809261
0	H	0.967055	0.586134	0.304837
0	H	0.112454	0.58188	0.258172
0	H	0.122465	0.44508	0.761535
0	H	0.976992	0.448244	0.808168
0	H	0.436438	0.256855	0.29065
0	H	0.640495	0.255878	0.274298
0	H	0.653017	0.774318	0.775802
0	H	0.4489	0.774257	0.791823
0	H	0.934373	0.760574	0.288358
0	H	0.143077	0.758163	0.276239
0	H	0.155073	0.270585	0.778106
0	H	0.946328	0.271982	0.789887
0	H	0.501385	0.212525	0.270496
0	H	0.575246	0.204716	0.292825
0	H	0.588085	0.818961	0.79591
0	H	0.514181	0.825558	0.773386
0	H	0.999345	0.716396	0.268115
0	H	0.0775485	0.707048	0.294407
0	H	0.090116	0.31505	0.798312
0	H	0.0118902	0.323268	0.77182
0	N	0.502523	0.860599	0.0864908
0	N	0.577228	0.858451	0.482238
0	N	0.587021	0.170989	0.979823
0	N	0.512363	0.172173	0.584123
0	N	0.00179822	0.364765	0.0842252
0	N	0.0780423	0.362408	0.484313
0	N	0.0877432	0.666794	0.982098
0	N	0.0115616	0.668221	0.582072
0	C	0.559479	0.726783	0.0313713
0	C	0.523439	0.71721	0.538633
0	C	0.530007	0.304321	0.03503
0	C	0.566116	0.313788	0.527825
0	C	0.0583755	0.233988	0.0275456
0	C	0.0246016	0.223929	0.542162
0	C	0.0311028	0.797068	0.038861
0	C	0.0649791	0.807092	0.524335
0	H	0.607244	0.682783	0.0398464
0	H	0.476094	0.674384	0.531967
0	H	0.482235	0.348263	0.0265677
0	H	0.613454	0.356685	0.534494
0	H	0.10622	0.192295	0.0351225
0	H	0.977298	0.183067	0.536448
0	H	0.983247	0.838682	0.0312929
0	H	0.112282	0.848004	0.53006
0	C	0.437639	0.762065	0.95289
0	C	0.64591	0.744662	0.611163
0	C	0.651813	0.268745	0.113616
0	C	0.443634	0.286546	0.455377
0	C	0.936205	0.264779	0.951102
0	C	0.147226	0.246658	0.612513
0	C	0.153247	0.766031	0.115412
0	C	0.942346	0.784643	0.454079
0	H	0.388563	0.74508	0.899104
0	H	0.695925	0.721337	0.662013
0	H	0.700868	0.285431	0.167489
0	H	0.393607	0.310034	0.404597
0	H	0.886831	0.246322	0.897959
0	H	0.197419	0.221628	0.662599
0	H	0.202603	0.784215	0.16864
0	H	0.892143	0.809879	0.404073
0	C	0.559965	0.805347	0.0924194
0	C	0.520701	0.802743	0.478494
0	C	0.529557	0.226114	0.973898
0	C	0.568883	0.227925	0.587861
0	C	0.0591545	0.31172	0.0890029
0	C	0.0216131	0.308987	0.481735
0	C	0.0303618	0.719701	0.977321
0	C	0.0679869	0.72168	0.584646
0	H	0.607863	0.82431	0.148767
0	H	0.471557	0.826863	0.424721
0	H	0.481691	0.207384	0.917483
0	H	0.618048	0.203547	0.641543
0	H	0.107409	0.331514	0.144757
0	H	0.972178	0.33438	0.428706
0	H	0.98214	0.700131	0.921497
0	H	0.117439	0.695994	0.63758
