#******************************************
#
# CIF file created by Zeo++
# Zeo++ is an open source package to
# analyze microporous materials
#
#*******************************************

_cell_length_a		17.1342(0)
_cell_length_b		16.6842(0)
_cell_length_c		6.14693(0)
_cell_angle_alpha		90(0)
_cell_angle_beta		90(0)
_cell_angle_gamma		118.124(0)

_symmetry_space_group_name_H-M		'P1'
_symmetry_Int_Tables_number		1
_symmetry_cell_setting		Monoclinic

loop_
_symmetry_equiv_pos_as_xyz
'+x,+y,+z'

loop_
_atom_site_label
_atom_site_type_symbol
_atom_site_fract_x
_atom_site_fract_y
_atom_site_fract_z
0	C	0.444364	0.249037	0.282322
0	C	0.72139	0.201849	0.61869
0	C	0.758637	0.531252	0.952816
0	C	0.497118	0.736752	0.282522
0	C	0.220273	0.784141	0.619052
0	C	0.182797	0.454688	0.952614
0	H	0.432143	0.194183	0.163007
0	H	0.774027	0.238899	0.496224
0	H	0.71836	0.546696	0.83461
0	H	0.509374	0.791594	0.163134
0	H	0.167597	0.747058	0.496807
0	H	0.22303	0.439226	0.834244
0	H	0.446243	0.219455	0.443855
0	H	0.751628	0.233915	0.77728
0	H	0.729091	0.531077	0.114764
0	H	0.495287	0.766384	0.444029
0	H	0.190067	0.752117	0.777736
0	H	0.212401	0.454845	0.114492
0	C	0.536637	0.329242	0.235105
0	C	0.642681	0.219885	0.571355
0	C	0.745237	0.434829	0.905329
0	C	0.404809	0.656587	0.235408
0	C	0.298983	0.7661	0.571628
0	C	0.19621	0.551135	0.905187
0	H	0.582687	0.300054	0.196533
0	H	0.670058	0.294538	0.531969
0	H	0.673061	0.390229	0.865508
0	H	0.358786	0.685785	0.196862
0	H	0.271552	0.691485	0.532301
0	H	0.26838	0.595729	0.86534
0	N	0.571315	0.396402	0.413955
0	N	0.577121	0.191225	0.749905
0	N	0.775193	0.396697	0.0845565
0	N	0.370105	0.589439	0.414276
0	N	0.364552	0.794729	0.750206
0	N	0.166274	0.589265	0.0844626
0	H	0.63752	0.417929	0.439355
0	H	0.555384	0.238236	0.77593
0	H	0.731809	0.329164	0.108504
0	H	0.303917	0.567995	0.439698
0	H	0.386176	0.747628	0.776272
0	H	0.209727	0.656766	0.108581
0	H	0.539557	0.370263	0.561246
0	H	0.60228	0.18287	0.897435
0	H	0.780469	0.429255	0.232537
0	H	0.401897	0.615552	0.561546
0	H	0.339421	0.803144	0.897719
0	H	0.160897	0.556639	0.232383
0	C	0.532097	0.377095	0.0239851
0	C	0.596327	0.169179	0.360299
0	C	0.795854	0.4376	0.694612
0	C	0.409265	0.60867	0.0243588
0	C	0.345317	0.816776	0.36056
0	C	0.145604	0.548443	0.694531
0	O	0.525011	0.339646	0.845496
0	O	0.631981	0.198359	0.181425
0	O	0.765117	0.442782	0.515614
0	O	0.416477	0.646151	0.845773
0	O	0.309622	0.787598	0.18164
0	O	0.176308	0.543233	0.515488
0	N	0.54212	0.463748	0.0385843
0	N	0.513625	0.09563	0.377492
0	N	0.871624	0.429258	0.712316
0	N	0.399009	0.52193	0.0389219
0	N	0.428013	0.890287	0.377711
0	N	0.0698614	0.556794	0.712305
0	H	0.546234	0.491755	0.190447
0	H	0.487368	0.0736936	0.530054
0	H	0.894283	0.425285	0.865015
0	H	0.394838	0.49391	0.190778
0	H	0.454374	0.912243	0.530357
0	H	0.047174	0.560719	0.865008
0	C	0.520131	0.50611	0.854294
0	C	0.466505	0.0368407	0.191337
0	C	0.932047	0.444161	0.527843
0	C	0.420827	0.479446	0.854491
0	C	0.475177	0.949036	0.191456
0	C	0.00938938	0.541932	0.527903
0	H	0.537486	0.484845	0.69655
0	H	0.49307	0.0739105	0.034409
0	H	0.895179	0.431036	0.370348
0	H	0.403371	0.50061	0.696938
0	H	0.448637	0.911936	0.0346918
0	H	0.0462902	0.555152	0.370417
0	H	0.561439	0.581425	0.86712
0	H	0.395308	0.0201772	0.201165
0	H	0.957573	0.39382	0.540373
0	H	0.379553	0.404173	0.867811
0	H	0.546402	0.965727	0.201322
0	H	0.983827	0.592243	0.540639
0	C	0.368855	0.271291	0.278665
0	C	0.697125	0.102661	0.620984
0	C	0.853448	0.604676	0.947349
0	C	0.572572	0.714422	0.278817
0	C	0.244506	0.883322	0.621181
0	C	0.0879817	0.381308	0.947324
0	C	0.354722	0.316902	0.453543
0	C	0.656068	0.0491537	0.804218
0	C	0.910694	0.614621	0.120519
0	C	0.58671	0.668824	0.453779
0	C	0.285623	0.936913	0.804328
0	C	0.0307566	0.371518	0.120433
0	H	0.400254	0.33798	0.591567
0	H	0.641685	0.0799208	0.945271
0	H	0.886079	0.568308	0.259051
0	H	0.541217	0.647829	0.591831
0	H	0.30006	0.90621	0.945434
0	H	0.055423	0.417936	0.258757
0	C	0.2828	0.334754	0.451293
0	C	0.633644	0.957066	0.805381
0	C	0.998389	0.683579	0.11552
0	C	0.658603	0.65093	0.451441
0	C	0.307981	0.0289739	0.805342
0	C	0.943065	0.302569	0.115744
0	H	0.272226	0.370873	0.586272
0	H	0.601578	0.915535	0.947387
0	H	0.043072	0.691107	0.2492
0	H	0.669165	0.614801	0.58643
0	H	0.340073	0.0705772	0.947263
0	H	0.898398	0.295164	0.249412
0	C	0.223795	0.306235	0.27609
0	C	0.652383	0.917843	0.625248
0	C	0.0293152	0.743735	0.939648
0	C	0.71756	0.679379	0.276199
0	C	0.289131	0.0681167	0.62522
0	C	0.912094	0.24224	0.940238
0	H	0.166974	0.318988	0.275744
0	H	0.635548	0.846164	0.627005
0	H	0.0974709	0.798072	0.937132
0	H	0.774381	0.666605	0.275816
0	H	0.30589	0.139786	0.626866
0	H	0.843961	0.187884	0.938007
0	C	0.237572	0.260707	0.101425
0	C	0.693431	0.97104	0.442569
0	C	0.972289	0.734487	0.767627
0	C	0.703757	0.724846	0.101405
0	C	0.248037	0.0148373	0.442676
0	C	0.969067	0.251348	0.768173
0	H	0.191419	0.23819	0.965101
0	H	0.708578	0.940538	0.302855
0	H	0.996034	0.782043	0.631773
0	H	0.749854	0.747286	0.964958
0	H	0.232783	0.0452725	0.303001
0	H	0.945272	0.203685	0.632522
0	C	0.309895	0.243545	0.102101
0	C	0.715687	0.0631	0.439945
0	C	0.884776	0.665015	0.770673
0	C	0.631453	0.74204	0.102109
0	C	0.225798	0.922789	0.440201
0	C	0.0565785	0.320817	0.770952
0	H	0.320396	0.208411	0.964908
0	H	0.747491	0.104134	0.297017
0	H	0.840932	0.658109	0.635504
0	H	0.620902	0.777102	0.964849
0	H	0.193932	0.88168	0.29739
0	H	0.100376	0.327614	0.635756
