#******************************************
#
# CIF file created by Zeo++
# Zeo++ is an open source package to
# analyze microporous materials
#
#*******************************************

_cell_length_a		11.2579(0)
_cell_length_b		11.5568(0)
_cell_length_c		12.8028(0)
_cell_angle_alpha		90(0)
_cell_angle_beta		90(0)
_cell_angle_gamma		120.846(0)

_symmetry_space_group_name_H-M		'P1'
_symmetry_Int_Tables_number		1
_symmetry_cell_setting		Monoclinic

loop_
_symmetry_equiv_pos_as_xyz
'+x,+y,+z'

loop_
_atom_site_label
_atom_site_type_symbol
_atom_site_fract_x
_atom_site_fract_y
_atom_site_fract_z
0	Si	0.677232	0.480827	0.578378
0	Si	0.504559	0.168868	0.576432
0	Si	0.825285	0.317346	0.57371
0	Si	0.330955	0.493287	0.280153
0	Si	0.503843	0.805357	0.281882
0	Si	0.183122	0.657037	0.28488
0	N	0.522946	0.326985	0.591059
0	N	0.661538	0.173744	0.582511
0	N	0.823259	0.466197	0.586194
0	N	0.485354	0.647189	0.267485
0	N	0.346888	0.800583	0.276032
0	N	0.18504	0.508159	0.272586
0	H	0.433048	0.33092	0.586726
0	H	0.656212	0.0820118	0.57248
0	H	0.918222	0.55463	0.577844
0	H	0.575257	0.643159	0.271926
0	H	0.35228	0.892352	0.286109
0	H	0.0900921	0.419706	0.281065
0	F	0.679093	0.542555	0.465569
0	F	0.436558	0.111258	0.463889
0	F	0.887006	0.315712	0.460904
0	F	0.329184	0.431379	0.392862
0	F	0.572327	0.863372	0.394235
0	F	0.121103	0.658965	0.397533
0	C	0.687287	0.613247	0.672928
0	C	0.373257	0.038275	0.671046
0	C	0.952939	0.312279	0.668779
0	C	0.320499	0.360923	0.185449
0	C	0.634761	0.935549	0.186851
0	C	0.0554532	0.661965	0.189713
0	C	0.565619	0.636136	0.652052
0	C	0.358006	0.89976	0.648717
0	C	0.0999053	0.433961	0.649796
0	C	0.441999	0.337702	0.206064
0	C	0.650201	0.074187	0.208888
0	C	0.908497	0.54027	0.208696
0	C	0.679246	0.566252	0.787013
0	C	0.424132	0.0808105	0.784445
0	C	0.909333	0.316979	0.782417
0	C	0.328355	0.408012	0.0714012
0	C	0.583333	0.892573	0.0736228
0	C	0.099072	0.657046	0.076103
0	C	0.825575	0.747455	0.65688
0	C	0.230424	0.025478	0.658192
0	C	0.954796	0.18066	0.651869
0	C	0.182081	0.226855	0.201546
0	C	0.777587	0.94828	0.199408
0	C	0.0535049	0.793555	0.206265
0	H	0.562048	0.664446	0.570548
0	H	0.326716	0.866374	0.56767
0	H	0.136399	0.436545	0.56963
0	H	0.445748	0.309446	0.287567
0	H	0.682243	0.108098	0.289822
0	H	0.871958	0.537789	0.28884
0	H	0.574274	0.718206	0.700658
0	H	0.278198	0.82142	0.6987
0	H	0.174976	0.429919	0.701948
0	H	0.432963	0.255467	0.157472
0	H	0.729535	0.152241	0.158494
0	H	0.833447	0.544201	0.156456
0	H	0.46492	0.546791	0.669706
0	H	0.453673	0.899313	0.66362
0	H	0.106857	0.530807	0.664033
0	H	0.542728	0.426883	0.188238
0	H	0.554419	0.0745294	0.194624
0	H	0.901552	0.443516	0.19461
0	H	0.581747	0.472451	0.80321
0	H	0.527441	0.0954783	0.79693
0	H	0.909049	0.410043	0.798598
0	H	0.425951	0.501729	0.0551111
0	H	0.480145	0.878282	0.0612847
0	H	0.0989619	0.563707	0.0599936
0	H	0.686098	0.642479	0.841659
0	H	0.354176	0.00361287	0.839958
0	H	0.981036	0.312547	0.837913
0	H	0.321202	0.331735	0.0166707
0	H	0.65324	0.96935	0.0178309
0	H	0.0276199	0.66171	0.0205013
0	H	0.763674	0.548628	0.806134
0	H	0.429602	0.175395	0.805834
0	H	0.805458	0.232366	0.800282
0	H	0.243995	0.425821	0.0524968
0	H	0.577292	0.79766	0.0524782
0	H	0.2031	0.741402	0.0582573
0	H	0.840082	0.783138	0.575785
0	H	0.192891	0.00343896	0.577338
0	H	0.976487	0.167905	0.570499
0	H	0.167857	0.190945	0.282552
0	H	0.815655	0.970876	0.280136
0	H	0.031875	0.806638	0.287791
0	H	0.915432	0.739782	0.67877
0	H	0.231591	0.116832	0.682642
0	H	0.856798	0.0908942	0.674244
0	H	0.0922808	0.234843	0.180089
0	H	0.776137	0.85669	0.17526
0	H	0.151397	0.883298	0.183857
0	H	0.828949	0.827446	0.705258
0	H	0.152213	0.942679	0.706155
0	H	0.0358193	0.180661	0.699483
0	H	0.178261	0.146892	0.152856
0	H	0.855594	0.0307164	0.151073
0	H	0.972351	0.793401	0.158873
