#******************************************
#
# CIF file created by Zeo++
# Zeo++ is an open source package to
# analyze microporous materials
#
#*******************************************

_cell_length_a		21.2298(0)
_cell_length_b		9.98184(0)
_cell_length_c		36.8656(0)
_cell_angle_alpha		90(0)
_cell_angle_beta		100.702(0)
_cell_angle_gamma		90(0)

_symmetry_space_group_name_H-M		'P1'
_symmetry_Int_Tables_number		1
_symmetry_cell_setting		Monoclinic

loop_
_symmetry_equiv_pos_as_xyz
'+x,+y,+z'

loop_
_atom_site_label
_atom_site_type_symbol
_atom_site_fract_x
_atom_site_fract_y
_atom_site_fract_z
0	I	0.695026	0.36008	0.170991
0	I	0.388128	0.366296	0.817464
0	I	0.193855	0.919384	0.165722
0	I	0.887835	0.885633	0.816711
0	Si	0.41449	0.969323	0.0491222
0	Si	0.666709	0.971112	0.937509
0	Si	0.925807	0.473406	0.0473699
0	Si	0.154218	0.472853	0.940494
0	O	0.269775	0.364508	0.394355
0	O	0.814323	0.367485	0.59178
0	O	0.775454	0.868624	0.394187
0	O	0.306009	0.867281	0.592495
0	O	0.300727	0.562018	0.37074
0	O	0.785109	0.565482	0.616028
0	O	0.804564	0.0682574	0.37088
0	O	0.274647	0.0625105	0.616982
0	O	0.278562	0.716543	0.326701
0	O	0.81146	0.713031	0.661544
0	O	0.783392	0.224641	0.327286
0	O	0.293983	0.226444	0.6585
0	O	0.363989	0.747435	0.265077
0	O	0.719867	0.747248	0.719632
0	O	0.867392	0.258031	0.265188
0	O	0.219246	0.260679	0.725952
0	O	0.347381	0.0179664	0.229292
0	O	0.7391	0.0189745	0.756332
0	O	0.84802	0.519559	0.227669
0	O	0.231511	0.515671	0.76137
0	H	0.342229	0.944343	0.210324
0	H	0.740797	0.948084	0.775902
0	H	0.848569	0.445379	0.209303
0	H	0.236079	0.433383	0.777318
0	O	0.455004	0.89837	0.217194
0	O	0.629791	0.906631	0.767177
0	O	0.961839	0.427931	0.218262
0	O	0.11523	0.432174	0.769533
0	O	0.519791	0.381771	0.215379
0	O	0.562687	0.38356	0.771741
0	O	0.023479	0.892504	0.214774
0	O	0.0603744	0.880893	0.769473
0	O	0.529457	0.424049	0.153641
0	O	0.555623	0.435469	0.833308
0	O	0.0275884	0.950969	0.153262
0	O	0.0543609	0.936935	0.830795
0	O	0.385811	0.346312	0.141777
0	O	0.69903	0.345706	0.844176
0	O	0.888334	0.842216	0.142253
0	O	0.196242	0.837311	0.84253
0	O	0.465633	0.739949	0.420539
0	O	0.619921	0.741798	0.565977
0	O	0.970809	0.247959	0.420702
0	O	0.111657	0.246169	0.564847
0	O	0.569485	0.739273	0.438846
0	O	0.516302	0.732789	0.547336
0	O	0.0745336	0.255761	0.439999
0	O	0.00785069	0.257587	0.545888
0	O	0.632658	0.581701	0.302485
0	O	0.453234	0.583182	0.68357
0	O	0.13364	0.0978837	0.302833
0	O	0.953314	0.0807894	0.681212
0	O	0.631384	0.356638	0.309463
0	O	0.448139	0.357057	0.680412
0	O	0.120357	0.878518	0.314982
0	O	0.991818	0.886985	0.66172
0	O	0.339371	0.802148	0.16186
0	O	0.737532	0.804857	0.824771
0	O	0.851804	0.3033	0.158741
0	O	0.232719	0.301725	0.829172
0	O	0.312514	0.911318	0.127757
0	O	0.764813	0.903248	0.860005
0	O	0.828069	0.391738	0.12197
0	O	0.252278	0.384794	0.867498
0	N	0.351088	0.570179	0.142053
0	N	0.731806	0.570391	0.843149
0	N	0.854929	0.0671861	0.142265
0	N	0.227076	0.0644117	0.843934
0	C	0.407313	0.766438	0.393994
0	C	0.677664	0.772668	0.592505
0	C	0.912676	0.272245	0.393828
0	C	0.170024	0.268395	0.591747
0	H	0.372641	0.701084	0.405042
0	H	0.713222	0.708277	0.58192
0	H	0.878743	0.203166	0.404256
0	H	0.20358	0.199392	0.581021
0	H	0.412747	0.727838	0.36676
0	H	0.672402	0.735372	0.619904
0	H	0.919524	0.236457	0.366579
0	H	0.163348	0.231304	0.618906
0	C	0.388876	0.914216	0.39316
0	C	0.694315	0.921299	0.592582
0	C	0.891637	0.418435	0.39328
0	C	0.191427	0.414419	0.592733
0	H	0.426191	0.975172	0.383368
0	H	0.65644	0.980804	0.602259
0	H	0.926582	0.482589	0.382269
0	H	0.156413	0.478426	0.603736
0	H	0.344141	0.927972	0.372488
0	H	0.739062	0.938381	0.612959
0	H	0.845337	0.428155	0.373672
0	H	0.237556	0.423388	0.612625
0	C	0.379282	0.964903	0.431056
0	C	0.70296	0.970986	0.554409
0	C	0.884327	0.468435	0.431645
0	C	0.199116	0.465125	0.554496
0	H	0.420248	0.931481	0.452599
0	H	0.661542	0.937512	0.533203
0	H	0.926054	0.43404	0.452549
0	H	0.157693	0.430136	0.533449
0	H	0.336478	0.917036	0.43866
0	H	0.745369	0.922587	0.54649
0	H	0.842092	0.420967	0.440044
0	H	0.241689	0.418624	0.546264
0	C	0.374284	0.11471	0.431217
0	C	0.708347	0.120778	0.55415
0	C	0.879877	0.61833	0.432195
0	C	0.202799	0.615067	0.554047
0	H	0.420148	0.167383	0.435016
0	H	0.662629	0.174012	0.549938
0	H	0.925901	0.670497	0.437427
0	H	0.156469	0.666076	0.548809
0	C	0.318577	0.180337	0.42705
0	C	0.76432	0.185555	0.55885
0	C	0.824353	0.684881	0.426673
0	C	0.257897	0.683184	0.559699
0	H	0.27235	0.129345	0.422451
0	H	0.810387	0.133814	0.563873
0	H	0.777938	0.634767	0.420662
0	H	0.304641	0.634499	0.56555
0	C	0.314339	0.330504	0.428228
0	C	0.769287	0.335647	0.557924
0	C	0.820247	0.835091	0.428001
0	C	0.260735	0.833534	0.558833
0	H	0.360394	0.382122	0.426949
0	H	0.723604	0.388227	0.559514
0	H	0.866158	0.887008	0.426571
0	H	0.214516	0.883174	0.560842
0	C	0.286232	0.378213	0.461646
0	C	0.797264	0.383616	0.524496
0	C	0.79246	0.882229	0.461597
0	C	0.287122	0.884523	0.525135
0	H	0.242663	0.318577	0.463886
0	H	0.83999	0.322081	0.521691
0	H	0.749757	0.820656	0.464362
0	H	0.330674	0.8265	0.521988
0	H	0.320925	0.359023	0.487481
0	H	0.761952	0.367084	0.498744
0	H	0.827908	0.865063	0.487259
0	H	0.251611	0.86618	0.499572
0	C	0.268166	0.522967	0.457472
0	C	0.817081	0.527315	0.529142
0	C	0.772787	0.0261	0.457343
0	C	0.304321	0.0296729	0.529727
0	H	0.267331	0.577746	0.482986
0	H	0.818565	0.582538	0.503766
0	H	0.771676	0.0807086	0.482874
0	H	0.303556	0.0863521	0.504326
0	C	0.253367	0.580153	0.424185
0	C	0.832679	0.583113	0.562573
0	C	0.756835	0.0827945	0.424066
0	C	0.320161	0.0850596	0.563179
0	H	0.241556	0.685722	0.420141
0	H	0.845971	0.687857	0.566868
0	H	0.74384	0.18785	0.420025
0	H	0.331123	0.190936	0.567567
0	C	0.252445	0.502749	0.389285
0	C	0.832803	0.504886	0.597232
0	C	0.756737	0.0060581	0.389129
0	C	0.32272	0.00549696	0.597914
0	C	0.189023	0.500552	0.361139
0	C	0.896011	0.499586	0.625522
0	C	0.693492	0.000916484	0.360829
0	C	0.386932	0.00358218	0.625458
0	H	0.156963	0.582014	0.366776
0	H	0.927438	0.584347	0.621402
0	H	0.659126	0.0760715	0.367326
0	H	0.421257	0.075078	0.617178
0	H	0.163773	0.404535	0.363074
0	H	0.922289	0.405991	0.622171
0	H	0.670945	0.901333	0.361637
0	H	0.408714	0.90273	0.625779
0	C	0.208367	0.51818	0.32346
0	C	0.875465	0.507423	0.66312
0	C	0.712033	0.0281356	0.323329
0	C	0.370825	0.0396976	0.663011
0	H	0.206019	0.421741	0.308487
0	H	0.874679	0.406699	0.675544
0	H	0.708645	0.936251	0.306389
0	H	0.37894	0.954147	0.682269
0	H	0.175375	0.588001	0.305851
0	H	0.909347	0.568894	0.682796
0	H	0.679349	0.103064	0.307497
0	H	0.401521	0.123104	0.676038
0	C	0.277451	0.572251	0.331593
0	C	0.807907	0.569421	0.655333
0	C	0.781473	0.0803086	0.331772
0	C	0.299885	0.0819379	0.655535
0	C	0.327493	0.506441	0.311802
0	C	0.755745	0.506818	0.674059
0	C	0.831632	0.0151079	0.311932
0	C	0.253716	0.0145482	0.67771
0	H	0.3748	0.553665	0.323639
0	H	0.709609	0.558288	0.661987
0	H	0.878881	0.0626051	0.323907
0	H	0.204806	0.0563241	0.66668
0	C	0.311286	0.537802	0.270374
0	C	0.770987	0.534734	0.71568
0	C	0.815576	0.0470882	0.270545
0	C	0.272751	0.0525704	0.718599
0	H	0.351558	0.502471	0.256987
0	H	0.729889	0.499943	0.72844
0	H	0.856102	0.0129686	0.257217
0	H	0.234426	0.0173219	0.733558
0	H	0.268587	0.480373	0.256988
0	H	0.812947	0.475317	0.72913
0	H	0.77317	0.989319	0.256931
0	H	0.316886	0.998862	0.731543
0	C	0.30074	0.686699	0.262364
0	C	0.782583	0.682742	0.724433
0	C	0.804432	0.195862	0.262667
0	C	0.282042	0.202637	0.725029
0	H	0.276489	0.704005	0.233173
0	H	0.804319	0.698479	0.754138
0	H	0.779753	0.213148	0.233494
0	H	0.310729	0.223284	0.753155
0	C	0.266472	0.765813	0.289186
0	C	0.820887	0.759748	0.699251
0	C	0.770212	0.273787	0.289715
0	C	0.309723	0.281217	0.695394
0	H	0.213616	0.769493	0.280271
0	H	0.873335	0.759073	0.709775
0	H	0.717206	0.276091	0.281099
0	H	0.362833	0.290246	0.702043
0	C	0.2991	0.903741	0.291489
0	C	0.790694	0.900036	0.69667
0	C	0.801949	0.412457	0.291921
0	C	0.274104	0.415779	0.692591
0	H	0.299678	0.950762	0.318637
0	H	0.794075	0.948816	0.670276
0	H	0.802837	0.459301	0.319119
0	H	0.267071	0.455365	0.664077
0	H	0.272871	0.972678	0.270181
0	H	0.816096	0.965636	0.719145
0	H	0.774903	0.480446	0.270662
0	H	0.301866	0.491307	0.711064
0	C	0.366777	0.874484	0.284581
0	C	0.721245	0.875413	0.701078
0	C	0.869454	0.385277	0.284484
0	C	0.210285	0.383051	0.704269
0	H	0.401125	0.857198	0.31092
0	H	0.688886	0.861982	0.673865
0	H	0.90466	0.369672	0.310598
0	H	0.172362	0.358102	0.679932
0	C	0.393129	0.980346	0.260722
0	C	0.69425	0.982221	0.724386
0	C	0.893593	0.492479	0.260145
0	C	0.186597	0.490835	0.72856
0	H	0.402372	0.0761481	0.276481
0	H	0.686343	0.0779514	0.708547
0	H	0.898545	0.591064	0.274781
0	H	0.182533	0.590085	0.714303
0	C	0.454994	0.929644	0.248813
0	C	0.631306	0.933723	0.73545
0	C	0.958053	0.450608	0.249942
0	C	0.121345	0.450247	0.73803
0	C	0.514558	0.932217	0.279216
0	C	0.573012	0.932769	0.704215
0	C	0.0148704	0.450394	0.282081
0	C	0.0660995	0.445615	0.704935
0	H	0.5	0.921609	0.306676
0	H	0.589012	0.916304	0.677349
0	H	0.997487	0.438891	0.308723
0	H	0.0850574	0.433807	0.678773
0	C	0.562124	0.819411	0.27525
0	C	0.524435	0.822737	0.708929
0	C	0.0623035	0.336214	0.279069
0	C	0.0197004	0.328849	0.70741
0	H	0.601524	0.820652	0.299683
0	H	0.485107	0.82309	0.684457
0	H	0.100506	0.336113	0.304092
0	H	0.981809	0.32797	0.682257
0	H	0.584889	0.841273	0.251096
0	H	0.501735	0.84808	0.73286
0	H	0.086877	0.357761	0.255591
0	H	0.994454	0.347524	0.730756
0	C	0.533349	0.677344	0.270519
0	C	0.552498	0.680228	0.714607
0	C	0.0327561	0.194958	0.273613
0	C	0.051054	0.189086	0.71257
0	H	0.498348	0.673741	0.24359
0	H	0.58801	0.678555	0.741346
0	H	0.996276	0.194468	0.247234
0	H	0.0865846	0.189303	0.739323
0	C	0.585829	0.572323	0.267576
0	C	0.500124	0.576227	0.718577
0	C	0.0846198	0.0906991	0.268806
0	C	0.000890531	0.0791372	0.715877
0	H	0.56489	0.468424	0.265601
0	H	0.521019	0.472306	0.721173
0	H	0.0639079	0.986634	0.266315
0	H	0.0244408	0.977721	0.718722
0	C	0.621221	0.595203	0.236092
0	C	0.464417	0.601331	0.749834
0	C	0.117817	0.118644	0.23669
0	C	0.963916	0.100709	0.746717
0	C	0.583191	0.566479	0.198356
0	C	0.501191	0.572884	0.787882
0	C	0.0775315	0.0938324	0.199331
0	C	0.00123777	0.0755672	0.784821
0	H	0.610008	0.598973	0.176428
0	H	0.473907	0.60782	0.80935
0	H	0.100326	0.137892	0.177043
0	H	0.974646	0.113813	0.806212
0	H	0.539122	0.629909	0.193447
0	H	0.545656	0.635282	0.792949
0	H	0.0311031	0.148656	0.196765
0	H	0.046223	0.136107	0.789304
0	C	0.562892	0.420279	0.190598
0	C	0.520749	0.426797	0.796716
0	C	0.0630766	0.946185	0.18977
0	C	0.0192294	0.929217	0.794254
0	C	0.614199	0.309015	0.197221
0	C	0.469437	0.315391	0.791762
0	C	0.119358	0.846658	0.193909
0	C	0.965729	0.822644	0.789743
0	H	0.635342	0.305401	0.227152
0	H	0.44836	0.307213	0.761884
0	H	0.142982	0.842162	0.223386
0	H	0.943393	0.815492	0.760103
0	C	0.583653	0.173372	0.184303
0	C	0.499905	0.181465	0.80655
0	C	0.0944319	0.70737	0.180158
0	C	0.993913	0.686469	0.804196
0	H	0.549847	0.14845	0.203779
0	H	0.533871	0.152251	0.787755
0	H	0.0628541	0.671689	0.199659
0	H	0.0270141	0.653972	0.785159
0	C	0.544423	0.184296	0.144869
0	C	0.538918	0.199885	0.845827
0	C	0.0531206	0.718131	0.141223
0	C	0.0338836	0.702101	0.843332
0	H	0.51879	0.0888565	0.136715
0	H	0.563231	0.104903	0.856097
0	H	0.0318881	0.61946	0.13202
0	H	0.0571809	0.60579	0.853028
0	H	0.577409	0.198287	0.124955
0	H	0.506082	0.222924	0.865306
0	H	0.0841795	0.745137	0.121087
0	H	0.00172205	0.726294	0.863068
0	C	0.496834	0.300711	0.140927
0	C	0.58781	0.31301	0.84727
0	C	0.000281684	0.823644	0.139489
0	C	0.0843872	0.812384	0.844934
0	H	0.47715	0.325436	0.111466
0	H	0.609453	0.342784	0.876082
0	H	0.978131	0.850182	0.110484
0	H	0.105833	0.841242	0.87387
0	C	0.442085	0.279477	0.162392
0	C	0.640623	0.283063	0.824959
0	C	0.948179	0.785808	0.161635
0	C	0.137132	0.778784	0.822863
0	H	0.426557	0.171446	0.161946
0	H	0.653906	0.173714	0.825971
0	H	0.937846	0.675454	0.160693
0	H	0.148562	0.668842	0.823467
0	C	0.455288	0.340236	0.201694
0	C	0.626956	0.340144	0.785243
0	C	0.96005	0.843516	0.201297
0	C	0.124824	0.838244	0.78339
0	H	0.448312	0.265496	0.223097
0	H	0.632758	0.26279	0.764278
0	H	0.956	0.765244	0.222317
0	H	0.131344	0.762251	0.762233
0	C	0.409219	0.459647	0.200143
0	C	0.673881	0.457485	0.785561
0	C	0.910334	0.955545	0.200779
0	C	0.171984	0.955634	0.78487
0	H	0.387228	0.466315	0.225156
0	H	0.695389	0.460479	0.760343
0	H	0.887262	0.952815	0.225413
0	H	0.194692	0.95957	0.760095
0	H	0.436901	0.554328	0.200027
0	H	0.646856	0.553303	0.785052
0	H	0.935355	0.054006	0.202527
0	H	0.145066	0.0514658	0.784344
0	C	0.35966	0.441879	0.164427
0	C	0.72396	0.441777	0.821117
0	C	0.862049	0.939178	0.164466
0	C	0.221053	0.938335	0.820846
0	C	0.291516	0.390977	0.167899
0	C	0.792347	0.39246	0.817636
0	C	0.79317	0.889902	0.166895
0	C	0.290271	0.893255	0.817728
0	H	0.268019	0.469964	0.182211
0	H	0.815379	0.472438	0.803408
0	H	0.769475	0.970052	0.180697
0	H	0.312879	0.97618	0.804343
0	C	0.251785	0.368977	0.128874
0	C	0.831929	0.371358	0.856738
0	C	0.754726	0.868678	0.127515
0	C	0.329443	0.870216	0.856855
0	H	0.203245	0.332213	0.130653
0	H	0.880712	0.335865	0.855079
0	H	0.705741	0.833095	0.128676
0	H	0.378666	0.837477	0.855271
0	H	0.27432	0.287044	0.115273
0	H	0.809721	0.288893	0.870313
0	H	0.777557	0.786605	0.114155
0	H	0.307599	0.78573	0.869821
0	C	0.246489	0.496363	0.104867
0	C	0.836389	0.498639	0.880788
0	C	0.751032	0.996519	0.103721
0	C	0.332112	0.995966	0.881411
0	H	0.218643	0.573918	0.117267
0	H	0.864659	0.576321	0.868791
0	H	0.722804	0.0742776	0.115713
0	H	0.35855	0.0770829	0.869457
0	C	0.313768	0.553721	0.103601
0	C	0.768979	0.556108	0.881642
0	C	0.818946	0.0526067	0.103495
0	C	0.263523	0.0464696	0.882528
0	H	0.341613	0.484127	0.0889129
0	H	0.741222	0.487316	0.896602
0	H	0.84697	0.982909	0.0889735
0	H	0.236794	0.972249	0.896455
0	H	0.310602	0.652088	0.0890825
0	H	0.771995	0.655405	0.895708
0	H	0.816744	0.151657	0.0893551
0	H	0.264373	0.143263	0.897682
0	C	0.332122	0.35594	0.319307
0	C	0.748552	0.357151	0.665664
0	C	0.836599	0.864611	0.319252
0	C	0.251693	0.863015	0.671998
0	H	0.377595	0.315007	0.314398
0	H	0.701962	0.319637	0.669719
0	H	0.882196	0.82451	0.314287
0	H	0.208335	0.819473	0.679187
0	H	0.293216	0.299545	0.302296
0	H	0.785821	0.296892	0.68277
0	H	0.797834	0.808088	0.302212
0	H	0.293171	0.812026	0.688284
0	H	0.328998	0.335544	0.34847
0	H	0.752402	0.337836	0.636554
0	H	0.833687	0.843571	0.348406
0	H	0.251652	0.839085	0.64267
0	C	0.544965	0.0704679	0.276738
0	C	0.54299	0.0724635	0.704179
0	C	0.0468095	0.58775	0.281128
0	C	0.0330068	0.58209	0.704752
0	H	0.592297	0.0783391	0.294841
0	H	0.498642	0.0811562	0.683521
0	H	0.0925864	0.594525	0.300889
0	H	0.988305	0.587015	0.684101
0	H	0.515888	0.151703	0.285019
0	H	0.574991	0.151866	0.697911
0	H	0.0170039	0.669986	0.288155
0	H	0.0629547	0.66475	0.698004
0	H	0.552135	0.0929645	0.248417
0	H	0.530379	0.0969591	0.731054
0	H	0.0578816	0.610035	0.253727
0	H	0.020347	0.605405	0.731719
0	C	0.497979	0.635843	0.30131
0	C	0.586842	0.635643	0.683628
0	C	0.999452	0.149842	0.304993
0	C	0.0864103	0.148842	0.681606
0	H	0.495438	0.52648	0.303826
0	H	0.590156	0.526189	0.682076
0	H	0.998926	0.0402025	0.307448
0	H	0.0901157	0.0391703	0.679552
0	H	0.447962	0.671153	0.295475
0	H	0.636549	0.672939	0.688462
0	H	0.94885	0.181359	0.299779
0	H	0.135919	0.186824	0.686809
0	H	0.521511	0.674423	0.328403
0	H	0.561972	0.670603	0.656417
0	H	0.0232881	0.189363	0.331923
0	H	0.0615848	0.184434	0.65442
0	C	0.681343	0.640214	0.241158
0	C	0.404544	0.648041	0.744264
0	C	0.177697	0.16456	0.241103
0	C	0.903178	0.14232	0.740775
0	H	0.708794	0.665454	0.268
0	H	0.377736	0.673259	0.717272
0	H	0.206657	0.185811	0.267796
0	H	0.876348	0.164176	0.713525
0	H	0.708077	0.653343	0.218912
0	H	0.377513	0.663031	0.766295
0	H	0.202681	0.181917	0.218286
0	H	0.875545	0.155498	0.762556
0	C	0.631884	0.058648	0.187086
0	C	0.451635	0.0673437	0.805235
0	C	0.147493	0.603121	0.181211
0	C	0.943612	0.57633	0.80314
0	H	0.607116	0.961826	0.182725
0	H	0.476334	0.970737	0.810371
0	H	0.12708	0.502743	0.175174
0	H	0.966744	0.478113	0.808766
0	H	0.663645	0.0547857	0.214038
0	H	0.419377	0.0605447	0.778499
0	H	0.179101	0.598828	0.208229
0	H	0.911572	0.570005	0.77631
0	H	0.662592	0.0660072	0.166232
0	H	0.421339	0.0777538	0.826227
0	H	0.177865	0.623238	0.16064
0	H	0.913409	0.591102	0.824058
0	C	0.295565	0.261772	0.19018
0	C	0.789457	0.263428	0.795264
0	C	0.795694	0.761252	0.189362
0	C	0.288544	0.766984	0.79435
0	H	0.247548	0.220827	0.19135
0	H	0.837635	0.224147	0.794039
0	H	0.747531	0.719738	0.189461
0	H	0.336896	0.725538	0.794737
0	H	0.320585	0.273682	0.218714
0	H	0.764342	0.275181	0.766731
0	H	0.818937	0.774655	0.218208
0	H	0.266599	0.7837	0.765438
0	H	0.32048	0.181643	0.177862
0	H	0.764872	0.182427	0.807451
0	H	0.822418	0.681643	0.178041
0	H	0.260962	0.686139	0.804563
0	C	0.211477	0.467266	0.0655588
0	C	0.870148	0.468637	0.920319
0	C	0.717406	0.967828	0.064071
0	C	0.367601	0.966655	0.920638
0	H	0.207796	0.557224	0.0481247
0	H	0.873837	0.558457	0.937796
0	H	0.71393	0.0583708	0.0468951
0	H	0.370794	0.0563573	0.938133
0	H	0.162447	0.431894	0.0651535
0	H	0.919042	0.43165	0.921232
0	H	0.668405	0.931181	0.0630151
0	H	0.416855	0.932977	0.920862
0	H	0.235455	0.39029	0.0517769
0	H	0.845	0.39246	0.933687
0	H	0.742469	0.892137	0.0504834
0	H	0.344167	0.888803	0.934427
0	C	0.525746	0.776423	0.41511
0	C	0.559094	0.774773	0.570934
0	C	0.0305187	0.29127	0.416178
0	C	0.0522537	0.289651	0.569894
0	C	0.533906	0.854915	0.381785
0	C	0.548965	0.855145	0.603557
0	C	0.0379093	0.374153	0.383512
0	C	0.0459539	0.368546	0.603439
0	H	0.578994	0.912819	0.387892
0	H	0.50349	0.911385	0.596536
0	H	0.0833281	0.430864	0.389671
0	H	0.999421	0.421319	0.59892
0	H	0.494821	0.926515	0.372569
0	H	0.587238	0.928294	0.612975
0	H	0.999065	0.447492	0.375558
0	H	0.0837587	0.444743	0.610737
0	H	0.537803	0.787054	0.358403
0	H	0.544358	0.788393	0.627057
0	H	0.0402439	0.309742	0.359254
0	H	0.0470263	0.301717	0.627613
0	C	0.651104	0.465249	0.321348
0	C	0.430683	0.465195	0.667049
0	C	0.146104	0.984821	0.324166
0	C	0.953834	0.978858	0.656188
0	C	0.696222	0.496731	0.356203
0	C	0.384134	0.493232	0.632506
0	C	0.193616	0.0173197	0.358
0	C	0.902201	0.00406634	0.62364
0	H	0.711388	0.602691	0.358073
0	H	0.368355	0.598725	0.630183
0	H	0.211009	0.121826	0.358448
0	H	0.882886	0.107008	0.623239
0	H	0.739453	0.432596	0.359082
0	H	0.341351	0.428109	0.630638
0	H	0.235457	0.949733	0.360858
0	H	0.861822	0.934242	0.623388
0	H	0.673916	0.476267	0.380389
0	H	0.40535	0.47141	0.608006
0	H	0.172359	0.00358826	0.382892
0	H	0.919932	0.989037	0.597662
0	C	0.346674	0.685597	0.159584
0	C	0.732016	0.686577	0.825514
0	C	0.856115	0.183994	0.15969
0	C	0.228037	0.182564	0.82721
0	C	0.369477	0.970753	0.120227
0	C	0.709431	0.972873	0.866271
0	C	0.882989	0.469133	0.118333
0	C	0.197826	0.466287	0.86937
0	H	0.407994	0.89428	0.125408
0	H	0.668333	0.902673	0.860639
0	H	0.925511	0.402719	0.124225
0	H	0.154351	0.402918	0.862868
0	H	0.383424	0.054155	0.140287
0	H	0.699535	0.0565772	0.845934
0	H	0.889302	0.549721	0.139648
0	H	0.194322	0.545373	0.847706
0	C	0.358618	0.0240358	0.0805579
0	C	0.721664	0.0273143	0.905777
0	C	0.871343	0.52899	0.0794419
0	C	0.207611	0.529338	0.907895
0	H	0.357098	0.135501	0.0809463
0	H	0.723096	0.138722	0.905216
0	H	0.871007	0.640332	0.0811571
0	H	0.205927	0.640536	0.905433
0	H	0.309554	0.993173	0.066207
0	H	0.771099	0.996832	0.919656
0	H	0.821571	0.501681	0.0652966
0	H	0.257713	0.506535	0.922471
0	C	0.420645	0.109211	0.0159583
0	C	0.660952	0.110756	0.970751
0	C	0.929973	0.613947	0.0141557
0	C	0.150538	0.613621	0.973735
0	H	0.448024	0.0766601	0.994911
0	H	0.633741	0.0785268	0.991898
0	H	0.957108	0.583977	0.992807
0	H	0.124011	0.5833	0.995326
0	H	0.445033	0.197555	0.0297493
0	H	0.636705	0.199308	0.956997
0	H	0.953719	0.702584	0.0281522
0	H	0.126299	0.70201	0.959907
0	H	0.372708	0.14027	0.00166688
0	H	0.709115	0.141312	0.984862
0	H	0.881465	0.643241	0.000387214
0	H	0.199141	0.643435	0.987173
0	C	0.378863	0.820704	0.0217059
0	C	0.703244	0.822204	0.964365
0	C	0.890083	0.322755	0.0210431
0	C	0.190774	0.323029	0.966853
0	H	0.412133	0.780054	0.00492902
0	H	0.670554	0.779195	0.981128
0	H	0.923395	0.279286	0.00477144
0	H	0.157229	0.277425	0.982617
0	H	0.334122	0.848586	0.003064
0	H	0.748041	0.850432	0.982926
0	H	0.845324	0.348568	0.00218671
0	H	0.234806	0.350056	0.986165
0	H	0.367871	0.740192	0.0398985
0	H	0.714534	0.743396	0.945727
0	H	0.879027	0.245118	0.0401213
0	H	0.203257	0.246615	0.947853
0	C	0.497634	0.924899	0.0733612
0	C	0.583795	0.926669	0.912969
0	C	0.00915501	0.431004	0.0715931
0	C	0.0704294	0.429125	0.917315
0	H	0.525942	0.892903	0.0527066
0	H	0.554491	0.898256	0.933431
0	H	0.0379927	0.401258	0.0509638
0	H	0.0433137	0.39578	0.938443
0	H	0.497585	0.841332	0.0927399
0	H	0.584218	0.840707	0.894399
0	H	0.00913447	0.345935	0.0905568
0	H	0.0699397	0.346253	0.897623
0	H	0.522796	0.009598	0.0885663
0	H	0.559628	0.0102579	0.896624
0	H	0.0335156	0.515524	0.0873931
0	H	0.0444925	0.51404	0.902638
