#******************************************
#
# CIF file created by Zeo++
# Zeo++ is an open source package to
# analyze microporous materials
#
#*******************************************

_cell_length_a		13.4328(0)
_cell_length_b		6.47745(0)
_cell_length_c		16.771(0)
_cell_angle_alpha		90(0)
_cell_angle_beta		85.3496(0)
_cell_angle_gamma		90(0)

_symmetry_space_group_name_H-M		'P1'
_symmetry_Int_Tables_number		1
_symmetry_cell_setting		Monoclinic

loop_
_symmetry_equiv_pos_as_xyz
'+x,+y,+z'

loop_
_atom_site_label
_atom_site_type_symbol
_atom_site_fract_x
_atom_site_fract_y
_atom_site_fract_z
0	C	0.654129	0.114422	0.700973
0	C	0.277669	0.613367	0.234909
0	C	0.733671	0.953685	0.682787
0	C	0.19823	0.452246	0.252703
0	H	0.808473	0.026932	0.679309
0	H	0.123411	0.525414	0.256391
0	H	0.725519	0.887113	0.622292
0	H	0.20647	0.384945	0.313083
0	C	0.72586	0.785716	0.74703
0	C	0.206	0.285045	0.188177
0	H	0.780385	0.660641	0.731103
0	H	0.151589	0.159608	0.203991
0	H	0.746394	0.849327	0.80476
0	H	0.185257	0.349321	0.130629
0	C	0.620731	0.69445	0.755906
0	C	0.311143	0.193952	0.178891
0	H	0.616179	0.577398	0.804548
0	H	0.315533	0.0776462	0.12996
0	H	0.607788	0.604995	0.700923
0	H	0.324328	0.10365	0.233645
0	C	0.536832	0.853526	0.771576
0	C	0.394942	0.353235	0.163259
0	H	0.464644	0.770552	0.762378
0	H	0.467214	0.27029	0.172258
0	C	0.529413	0.934511	0.857553
0	C	0.402259	0.434459	0.0773248
0	H	0.533981	0.804238	0.900958
0	H	0.397677	0.304186	0.033932
0	H	0.593937	0.0339998	0.869035
0	H	0.337698	0.534085	0.06594
0	C	0.433817	0.0530506	0.875281
0	C	0.497845	0.553088	0.0595468
0	C	0.391883	0.161906	0.804763
0	C	0.539504	0.662864	0.129974
0	H	0.357525	0.309648	0.829023
0	H	0.573484	0.810906	0.105643
0	C	0.473949	0.219307	0.738042
0	C	0.457151	0.719605	0.196554
0	H	0.523348	0.336244	0.765463
0	H	0.407311	0.835165	0.168837
0	C	0.54473	0.0359754	0.710524
0	C	0.387125	0.53537	0.224441
0	C	0.428072	0.330187	0.668133
0	C	0.502497	0.832326	0.266268
0	H	0.486022	0.348981	0.617408
0	H	0.44438	0.850682	0.316937
0	H	0.409816	0.491696	0.686714
0	H	0.520206	0.993894	0.247399
0	C	0.334573	0.230423	0.637395
0	C	0.596324	0.734564	0.297251
0	H	0.30054	0.339864	0.596608
0	H	0.630006	0.845536	0.337671
0	H	0.354278	0.0935484	0.599667
0	H	0.576969	0.598347	0.335429
0	C	0.258306	0.171924	0.706746
0	C	0.672823	0.675464	0.228139
0	C	0.311445	0.034992	0.767602
0	C	0.620125	0.537273	0.167443
0	H	0.350188	0.904121	0.733372
0	H	0.581688	0.406238	0.20179
0	C	0.225345	0.94028	0.821721
0	C	0.706576	0.442633	0.113686
0	H	0.202467	0.0422993	0.872688
0	H	0.729862	0.544848	0.062888
0	H	0.247208	0.793103	0.848249
0	H	0.684971	0.295537	0.0870352
0	C	0.140314	0.911241	0.765817
0	C	0.791088	0.413615	0.170092
0	H	0.0705244	0.983971	0.791278
0	H	0.861283	0.484871	0.144721
0	H	0.122891	0.74683	0.757179
0	H	0.807863	0.249137	0.179339
0	C	0.176564	0.0146673	0.685843
0	C	0.754642	0.518993	0.249648
0	H	0.203344	0.902536	0.638907
0	H	0.727857	0.407998	0.297023
0	C	0.209311	0.366882	0.743836
0	C	0.721782	0.870121	0.190724
0	H	0.265457	0.478812	0.760159
0	H	0.665644	0.981835	0.17427
0	H	0.160486	0.332487	0.797676
0	H	0.770573	0.835237	0.136927
0	H	0.163342	0.442298	0.701027
0	H	0.767799	0.946032	0.233396
0	C	0.517276	0.949098	0.63043
0	C	0.415748	0.447792	0.304098
0	C	0.54477	0.0086504	0.487402
0	C	0.390389	0.504158	0.447248
0	H	0.566074	0.150811	0.454521
0	H	0.369535	0.645218	0.48094
0	H	0.46565	0.972197	0.483689
0	H	0.46966	0.467433	0.450015
0	H	0.592887	0.878015	0.468251
0	H	0.342443	0.373092	0.466235
0	C	0.0269481	0.0290029	0.614021
0	C	0.904525	0.5352	0.321002
0	C	0.954064	0.172934	0.580917
0	C	0.977296	0.679391	0.354094
0	C	0.887028	0.0909069	0.529238
0	C	0.0443012	0.59744	0.405826
0	H	0.890446	0.926397	0.513266
0	H	0.0407755	0.432983	0.421917
0	C	0.81448	0.217231	0.499446
0	C	0.116983	0.723482	0.435567
0	H	0.760825	0.154269	0.45987
0	H	0.170601	0.660577	0.475205
0	C	0.811543	0.426731	0.521259
0	C	0.119929	0.932961	0.413702
0	C	0.879631	0.510936	0.571487
0	C	0.0518512	0.0171207	0.363419
0	H	0.877761	0.676178	0.586636
0	H	0.0537189	0.182369	0.348263
0	C	0.951383	0.38283	0.601414
0	C	0.980015	0.889198	0.333484
0	H	0.0055401	0.447105	0.640273
0	H	0.925859	0.953551	0.294642
0	N	0.735193	0.563133	0.490836
0	N	0.19632	0.0692042	0.444146
0	O	0.674728	0.294838	0.708991
0	O	0.256896	0.794035	0.227888
0	O	0.39242	0.0648202	0.942237
0	O	0.539279	0.564131	0.992589
0	O	0.461914	0.806268	0.619109
0	O	0.47132	0.304747	0.314682
0	O	0.564555	0.0606576	0.569178
0	O	0.369446	0.558595	0.36595
0	O	0.0953544	0.133932	0.653885
0	O	0.83572	0.639404	0.281324
0	O	0.0280923	0.84207	0.606982
0	O	0.903803	0.348204	0.327961
0	O	0.741582	0.748814	0.504508
0	O	0.189972	0.254941	0.430578
0	O	0.670235	0.487968	0.453119
0	O	0.261305	0.993911	0.481791
