#******************************************
#
# CIF file created by Zeo++
# Zeo++ is an open source package to
# analyze microporous materials
#
#*******************************************

_cell_length_a		12.203(0)
_cell_length_b		21.3573(0)
_cell_length_c		10.2918(0)
_cell_angle_alpha		93.5747(0)
_cell_angle_beta		94.4143(0)
_cell_angle_gamma		74.9992(0)

_symmetry_space_group_name_H-M		'P1'
_symmetry_Int_Tables_number		1
_symmetry_cell_setting		Triclinic

loop_
_symmetry_equiv_pos_as_xyz
'+x,+y,+z'

loop_
_atom_site_label
_atom_site_type_symbol
_atom_site_fract_x
_atom_site_fract_y
_atom_site_fract_z
0	O	0.956532	0.531113	0.193181
0	O	0.0557305	0.472874	0.807194
0	O	0.819424	0.571043	0.833511
0	O	0.193058	0.432863	0.166937
0	O	0.771346	0.500826	0.961364
0	O	0.240782	0.503086	0.0388156
0	O	0.723159	0.520305	0.473374
0	O	0.289284	0.4836	0.527164
0	O	0.899446	0.484504	0.402219
0	O	0.112773	0.519192	0.597791
0	O	0.0405111	0.0211065	0.210448
0	O	0.971622	0.98296	0.789964
0	O	0.217046	0.0150975	0.895432
0	O	0.795103	0.988734	0.105164
0	O	0.288144	0.0191154	0.105037
0	O	0.724196	0.984967	0.895404
0	O	0.0654695	0.153586	0.513607
0	O	0.946966	0.850423	0.486829
0	O	0.123098	0.0453733	0.469814
0	O	0.889181	0.958635	0.530496
0	N	0.852533	0.651759	0.0372801
0	N	0.159501	0.352201	0.963158
0	N	0.0101245	0.0925788	0.961012
0	N	0.00215773	0.911477	0.039345
0	C	0.857061	0.557281	0.182825
0	C	0.15516	0.446606	0.817524
0	C	0.798178	0.600212	0.0654175
0	C	0.213986	0.40367	0.934945
0	C	0.673899	0.631818	0.107231
0	C	0.338259	0.372016	0.893114
0	C	0.665771	0.599471	0.232672
0	C	0.346434	0.404346	0.76766
0	C	0.766934	0.559057	0.273403
0	C	0.245278	0.444759	0.726894
0	C	0.798187	0.557142	0.939125
0	C	0.214092	0.44675	0.0612137
0	C	0.773196	0.45561	0.848159
0	C	0.23899	0.548331	0.151978
0	C	0.789611	0.521579	0.391897
0	C	0.222662	0.482222	0.608382
0	C	0.934186	0.447803	0.520215
0	C	0.0781136	0.555821	0.479696
0	C	0.583649	0.628972	0.999598
0	C	0.428523	0.37485	0.000746861
0	C	0.574868	0.668768	0.893322
0	C	0.437464	0.334966	0.106874
0	C	0.494955	0.666962	0.789586
0	C	0.517348	0.336819	0.210683
0	C	0.421378	0.626491	0.791725
0	C	0.590695	0.377419	0.20872
0	C	0.428853	0.587515	0.897675
0	C	0.583145	0.416428	0.102757
0	C	0.510504	0.588188	0.00070087
0	C	0.501534	0.415729	0.999734
0	C	0.558744	0.615739	0.298236
0	C	0.453468	0.388063	0.702101
0	C	0.496004	0.680819	0.31313
0	C	0.516212	0.322976	0.687362
0	C	0.394972	0.696147	0.376909
0	C	0.617213	0.307603	0.62352
0	C	0.354789	0.646879	0.424974
0	C	0.657401	0.356826	0.575256
0	C	0.415944	0.582154	0.409369
0	C	0.596272	0.421559	0.590776
0	C	0.517566	0.566541	0.346383
0	C	0.494653	0.437219	0.653783
0	C	0.930413	0.673045	0.129585
0	C	0.0818439	0.330817	0.870696
0	C	0.906563	0.686623	0.261592
0	C	0.105881	0.317222	0.738746
0	C	0.976577	0.71627	0.343877
0	C	0.0361105	0.287476	0.65637
0	C	0.0710445	0.73122	0.297248
0	C	0.941617	0.272469	0.702856
0	C	0.095804	0.71655	0.166755
0	C	0.916622	0.287154	0.833231
0	C	0.0265813	0.687313	0.0825871
0	C	0.985646	0.316502	0.91755
0	C	0.0792399	0.0663422	0.196244
0	C	0.932969	0.937696	0.804155
0	C	0.103951	0.0879922	0.0598005
0	C	0.90827	0.916031	0.940609
0	C	0.134358	0.154809	0.0924728
0	C	0.877948	0.849203	0.907942
0	C	0.147228	0.159622	0.240797
0	C	0.865136	0.844365	0.75962
0	C	0.110763	0.112904	0.295771
0	C	0.901533	0.891108	0.704627
0	C	0.206847	0.0371559	0.00584167
0	C	0.805397	0.96682	0.994669
0	C	0.38969	0.968889	0.0730029
0	C	0.622437	0.0350078	0.927534
0	C	0.0969947	0.108652	0.435758
0	C	0.91531	0.895359	0.564638
0	C	0.104289	0.0333424	0.603449
0	C	0.907922	0.970574	0.396766
0	C	0.230592	0.162725	0.0168145
0	C	0.78169	0.841276	0.98355
0	C	0.207408	0.17417	0.883173
0	C	0.804834	0.829781	0.117168
0	C	0.292841	0.181806	0.807549
0	C	0.719377	0.822103	0.192707
0	C	0.401672	0.178955	0.864832
0	C	0.610592	0.824933	0.135371
0	C	0.424796	0.16786	0.997732
0	C	0.587502	0.83609	0.00247727
0	C	0.340074	0.15897	0.0734085
0	C	0.672232	0.845026	0.926877
0	C	0.190295	0.211598	0.30956
0	C	0.822285	0.792326	0.690879
0	C	0.145344	0.276593	0.277156
0	C	0.86726	0.727326	0.723427
0	C	0.189245	0.325325	0.341113
0	C	0.823447	0.678565	0.659542
0	C	0.278762	0.309595	0.436492
0	C	0.733934	0.694245	0.564147
0	C	0.322993	0.244991	0.469844
0	C	0.689632	0.758794	0.530691
0	C	0.278551	0.196087	0.407665
0	C	0.733942	0.807736	0.592885
0	C	0.899548	0.132982	0.971525
0	C	0.112645	0.870961	0.0288946
0	C	0.823048	0.133269	0.860079
0	C	0.189189	0.8706	0.140308
0	C	0.715945	0.176222	0.85806
0	C	0.296201	0.827531	0.142334
0	C	0.681525	0.218524	0.96555
0	C	0.330514	0.785263	0.0347955
0	C	0.755433	0.216524	0.076445
0	C	0.256644	0.787389	0.923872
0	C	0.863962	0.173985	0.0810457
0	C	0.148169	0.829966	0.919297
0	H	0.862304	0.432786	0.829179
0	H	0.149889	0.57108	0.171128
0	H	0.727831	0.481525	0.76323
0	H	0.284554	0.522435	0.236833
0	H	0.730006	0.421085	0.881325
0	H	0.281996	0.582906	0.118643
0	H	0.866428	0.427631	0.548534
0	H	0.145752	0.576157	0.451616
0	H	0.00857924	0.410114	0.490593
0	H	0.00345364	0.593386	0.509072
0	H	0.957593	0.480572	0.59857
0	H	0.0550954	0.522966	0.401285
0	H	0.632105	0.700441	0.891006
0	H	0.380363	0.303214	0.109136
0	H	0.490547	0.696774	0.706189
0	H	0.521862	0.306925	0.293974
0	H	0.359156	0.625192	0.710497
0	H	0.652824	0.37879	0.289983
0	H	0.370979	0.556344	0.900844
0	H	0.64091	0.447681	0.0996834
0	H	0.516418	0.556248	0.080913
0	H	0.495525	0.447699	0.919548
0	H	0.526234	0.719364	0.275081
0	H	0.486008	0.284462	0.725557
0	H	0.346559	0.746538	0.388651
0	H	0.665608	0.257197	0.611854
0	H	0.275348	0.659136	0.473959
0	H	0.736787	0.344523	0.526175
0	H	0.384811	0.543326	0.446794
0	H	0.627397	0.460361	0.55323
0	H	0.565293	0.515781	0.335344
0	H	0.446938	0.487989	0.664725
0	H	0.832869	0.676051	0.299196
0	H	0.179504	0.327891	0.701245
0	H	0.955994	0.729441	0.44521
0	H	0.0567936	0.274318	0.555065
0	H	0.123071	0.755692	0.362015
0	H	0.889813	0.247869	0.638004
0	H	0.169401	0.728395	0.130034
0	H	0.842944	0.275316	0.869771
0	H	0.0473121	0.675436	0.981723
0	H	0.964712	0.328405	0.0183575
0	H	0.667804	0.684931	0.133046
0	H	0.344294	0.318906	0.867325
0	H	0.877345	0.646764	0.942307
0	H	0.134369	0.357364	0.0580211
0	H	0.419371	0.977827	0.979886
0	H	0.592738	0.0258893	0.0205055
0	H	0.44998	0.973583	0.155292
0	H	0.562302	0.0303051	0.845129
0	H	0.368388	0.921938	0.0689449
0	H	0.643498	0.0820341	0.93191
0	H	0.113509	0.980817	0.599063
0	H	0.899266	0.0230405	0.401111
0	H	0.168938	0.0471805	0.670608
0	H	0.842912	0.95697	0.329827
0	H	0.018453	0.0596275	0.628568
0	H	0.993537	0.944003	0.371392
0	H	0.360291	0.149035	0.176209
0	H	0.652058	0.854978	0.824078
0	H	0.50916	0.166305	0.0431054
0	H	0.503163	0.837629	0.957067
0	H	0.273433	0.190368	0.703871
0	H	0.738781	0.813487	0.296371
0	H	0.468248	0.185065	0.806114
0	H	0.543979	0.818798	0.193979
0	H	0.122184	0.177246	0.837507
0	H	0.890041	0.826703	0.162904
0	H	0.0760247	0.289194	0.202422
0	H	0.936571	0.714826	0.798208
0	H	0.155111	0.376037	0.314749
0	H	0.857679	0.627855	0.685942
0	H	0.314524	0.347869	0.483573
0	H	0.698254	0.655914	0.517117
0	H	0.392735	0.232634	0.544025
0	H	0.61989	0.771088	0.456465
0	H	0.312796	0.145799	0.434305
0	H	0.699674	0.857954	0.566097
0	H	0.849163	0.100243	0.77642
0	H	0.163161	0.903648	0.224024
0	H	0.658105	0.176999	0.771673
0	H	0.354008	0.826662	0.228789
0	H	0.598173	0.252805	0.962745
0	H	0.413763	0.75092	0.0375755
0	H	0.728437	0.248629	0.161195
0	H	0.283593	0.755344	0.839032
0	H	0.91792	0.172662	0.170146
0	H	0.0942065	0.831345	0.830239
0	H	0.0574949	0.195223	0.062515
0	H	0.954792	0.808786	0.93794
0	H	0.0198813	0.0542673	0.891982
0	H	0.992428	0.949745	0.108412
