#******************************************
#
# CIF file created by Zeo++
# Zeo++ is an open source package to
# analyze microporous materials
#
#*******************************************

_cell_length_a		18.4177(0)
_cell_length_b		18.3302(0)
_cell_length_c		21.9654(0)
_cell_angle_alpha		90(0)
_cell_angle_beta		90(0)
_cell_angle_gamma		119.676(0)

_symmetry_space_group_name_H-M		'P1'
_symmetry_Int_Tables_number		1
_symmetry_cell_setting		Monoclinic

loop_
_symmetry_equiv_pos_as_xyz
'+x,+y,+z'

loop_
_atom_site_label
_atom_site_type_symbol
_atom_site_fract_x
_atom_site_fract_y
_atom_site_fract_z
0	As	0.422256	0.477176	0.285364
0	As	0.506921	0.941943	0.285325
0	As	0.0406937	0.562199	0.284881
0	As	0.473034	0.425398	0.203679
0	As	0.938496	0.511499	0.203496
0	As	0.557934	0.0447186	0.203943
0	As	0.557582	0.510362	0.702242
0	As	0.472665	0.0455048	0.702466
0	As	0.938976	0.425535	0.702154
0	As	0.506658	0.562146	0.783844
0	As	0.0411349	0.4761	0.78358
0	As	0.421653	0.942726	0.783822
0	O	0.597787	0.575373	0.314205
0	O	0.408245	0.0198497	0.314276
0	O	0.963966	0.385908	0.313867
0	O	0.569105	0.60141	0.17381
0	O	0.0158459	0.412413	0.173606
0	O	0.382669	0.966959	0.174025
0	O	0.382061	0.412245	0.673437
0	O	0.57154	0.967788	0.673585
0	O	0.0158207	0.601847	0.67317
0	O	0.410723	0.386167	0.81376
0	O	0.963894	0.575288	0.813472
0	O	0.596898	0.0205984	0.813892
0	O	0.41995	0.424214	0.40537
0	O	0.559153	0.992407	0.405434
0	O	0.991163	0.564691	0.405131
0	O	0.418145	0.420723	0.0839762
0	O	0.988036	0.565884	0.08361
0	O	0.563177	0.995507	0.0839317
0	O	0.559895	0.563191	0.58219
0	O	0.420607	0.995219	0.582327
0	O	0.988521	0.42288	0.581931
0	O	0.561546	0.566913	0.903577
0	O	0.991616	0.421813	0.903466
0	O	0.416231	0.991923	0.903817
0	C	0.530043	0.571182	0.318961
0	C	0.412597	0.955998	0.318803
0	C	0.027205	0.453745	0.318453
0	C	0.565806	0.533698	0.169431
0	C	0.952402	0.416983	0.169358
0	C	0.450138	0.0305989	0.169658
0	C	0.449777	0.416375	0.668636
0	C	0.567029	0.0315426	0.668979
0	C	0.952564	0.534028	0.668616
0	C	0.413901	0.453826	0.818087
0	C	0.0272851	0.570621	0.817764
0	C	0.529457	0.956915	0.818149
0	C	0.402195	0.398059	0.353449
0	C	0.585305	0.000706312	0.353529
0	C	0.982258	0.582407	0.353274
0	C	0.392978	0.403791	0.136152
0	C	0.996849	0.591327	0.135787
0	C	0.579793	0.986493	0.136068
0	C	0.577618	0.589408	0.6341
0	C	0.394363	0.986854	0.634204
0	C	0.997425	0.405238	0.633813
0	C	0.586685	0.583801	0.851393
0	C	0.982793	0.396312	0.851305
0	C	0.399707	0.000944296	0.851656
0	C	0.519014	0.634254	0.35437
0	C	0.349603	0.882046	0.353757
0	C	0.100878	0.464319	0.353639
0	C	0.62926	0.523369	0.134314
0	C	0.878534	0.354004	0.134472
0	C	0.460842	0.104666	0.134446
0	C	0.460673	0.353252	0.633192
0	C	0.629909	0.105442	0.633914
0	C	0.878834	0.523432	0.633504
0	C	0.350353	0.464091	0.853128
0	C	0.101108	0.633495	0.852758
0	C	0.518703	0.882762	0.853271
0	C	0.488101	0.683435	0.32768
0	C	0.30096	0.802537	0.326647
0	C	0.180244	0.494987	0.326717
0	C	0.679595	0.494312	0.161498
0	C	0.799715	0.304623	0.16191
0	C	0.490491	0.184168	0.161573
0	C	0.491472	0.303952	0.659853
0	C	0.678532	0.18504	0.660924
0	C	0.799529	0.492822	0.660515
0	C	0.30002	0.493113	0.825895
0	C	0.180019	0.682804	0.825433
0	C	0.48908	0.803319	0.826056
0	C	0.47078	0.735373	0.364364
0	C	0.248701	0.733348	0.362848
0	C	0.249213	0.511958	0.363115
0	C	0.732202	0.477763	0.125183
0	C	0.730541	0.252447	0.125874
0	C	0.507822	0.253621	0.125235
0	C	0.508684	0.251963	0.623144
0	C	0.730719	0.254144	0.624635
0	C	0.730475	0.475722	0.624189
0	C	0.247329	0.509609	0.862157
0	C	0.249123	0.734886	0.861573
0	C	0.471675	0.733781	0.86232
0	H	0.441773	0.769085	0.344645
0	H	0.215246	0.671049	0.342747
0	H	0.311328	0.540707	0.343137
0	H	0.766986	0.450248	0.145371
0	H	0.668778	0.218435	0.146294
0	H	0.535949	0.315901	0.14538
0	H	0.537557	0.218112	0.642843
0	H	0.764175	0.316495	0.64466
0	H	0.668402	0.447021	0.64423
0	H	0.212523	0.537071	0.84193
0	H	0.310951	0.768834	0.841244
0	H	0.443547	0.671541	0.84211
0	C	0.488733	0.743358	0.426907
0	C	0.240062	0.742872	0.425382
0	C	0.239648	0.493901	0.425656
0	C	0.73952	0.494577	0.0624666
0	C	0.739378	0.244631	0.0631276
0	C	0.49102	0.244373	0.0625238
0	C	0.490775	0.244075	0.560596
0	C	0.739279	0.244488	0.562109
0	C	0.73988	0.493554	0.561609
0	C	0.239933	0.492776	0.924872
0	C	0.240109	0.742692	0.924296
0	C	0.488394	0.742901	0.925046
0	C	0.524318	0.698492	0.452724
0	C	0.284466	0.822823	0.451623
0	C	0.159899	0.45841	0.451691
0	C	0.693413	0.528394	0.03612
0	C	0.818642	0.289748	0.0365064
0	C	0.456507	0.164451	0.0362399
0	C	0.455253	0.289018	0.534816
0	C	0.694893	0.164473	0.535977
0	C	0.819564	0.52901	0.535474
0	C	0.286023	0.458968	0.951269
0	C	0.160754	0.697647	0.950789
0	C	0.522878	0.822764	0.951428
0	H	0.541214	0.706315	0.500783
0	H	0.276115	0.831605	0.499645
0	H	0.151126	0.441324	0.49972
0	H	0.700714	0.544445	0.987904
0	H	0.826809	0.281973	0.988277
0	H	0.440473	0.155966	0.98804
0	H	0.438356	0.281243	0.48676
0	H	0.703174	0.155591	0.487961
0	H	0.82821	0.545934	0.487418
0	H	0.278647	0.442884	0.99948
0	H	0.152453	0.705415	0.998998
0	H	0.538846	0.831146	0.999643
0	C	0.53936	0.643932	0.417115
0	C	0.339238	0.8923	0.41648
0	C	0.0906038	0.443726	0.416358
0	C	0.638344	0.542755	0.0713962
0	C	0.888131	0.344371	0.0715187
0	C	0.44151	0.0946787	0.0715385
0	C	0.440271	0.343596	0.570459
0	C	0.640208	0.0950535	0.571203
0	C	0.888958	0.543843	0.570756
0	C	0.341162	0.444655	0.916041
0	C	0.0913445	0.643108	0.915685
0	C	0.537925	0.892605	0.916198
0	C	0.474674	0.68359	0.260545
0	C	0.301797	0.789529	0.259495
0	C	0.193305	0.508484	0.259559
0	C	0.680225	0.482149	0.228761
0	C	0.787533	0.304601	0.229209
0	C	0.502426	0.196744	0.228857
0	C	0.504854	0.303719	0.726989
0	C	0.677701	0.198203	0.728054
0	C	0.786608	0.479461	0.727693
0	C	0.299471	0.505275	0.758626
0	C	0.192353	0.682842	0.758151
0	C	0.477203	0.790892	0.75876
0	H	0.408431	0.644939	0.248472
0	H	0.34127	0.762308	0.247581
0	H	0.220112	0.575008	0.247461
0	H	0.642111	0.415809	0.241493
0	H	0.760376	0.343923	0.241935
0	H	0.568434	0.224255	0.241689
0	H	0.571097	0.34229	0.739092
0	H	0.638034	0.225231	0.739902
0	H	0.759839	0.41296	0.739851
0	H	0.337878	0.571567	0.745859
0	H	0.219022	0.64308	0.745446
0	H	0.411263	0.763857	0.745877
0	H	0.511479	0.662729	0.233321
0	H	0.322039	0.847319	0.232567
0	H	0.135935	0.471221	0.232571
0	H	0.659273	0.519425	0.255443
0	H	0.845399	0.324796	0.255672
0	H	0.465281	0.138742	0.255471
0	H	0.468087	0.324636	0.754207
0	H	0.65766	0.140505	0.755054
0	H	0.844033	0.516793	0.75462
0	H	0.320145	0.467736	0.731985
0	H	0.134627	0.663141	0.731626
0	H	0.514722	0.848878	0.732209
0	H	0.494871	0.747653	0.244102
0	H	0.238465	0.745728	0.24261
0	H	0.237211	0.488485	0.242896
0	H	0.744121	0.503055	0.245186
0	H	0.744242	0.240721	0.245829
0	H	0.481466	0.240127	0.245266
0	H	0.484541	0.239617	0.7434
0	H	0.740999	0.242223	0.744893
0	H	0.742714	0.499466	0.744371
0	H	0.235657	0.484705	0.74218
0	H	0.236092	0.746619	0.741588
0	H	0.497695	0.747157	0.742318
0	C	0.470117	0.799507	0.464817
0	C	0.18392	0.668236	0.462907
0	C	0.314097	0.512353	0.463329
0	C	0.796159	0.476584	0.0248862
0	C	0.664764	0.188491	0.0258126
0	C	0.509653	0.319314	0.0249587
0	C	0.5093	0.187894	0.52265
0	C	0.795351	0.319047	0.524487
0	C	0.665318	0.474916	0.524023
0	C	0.183227	0.510742	0.962396
0	C	0.314642	0.798751	0.961722
0	C	0.469657	0.667854	0.962519
0	H	0.503136	0.864864	0.44777
0	H	0.119375	0.635484	0.444893
0	H	0.346388	0.479216	0.446096
0	H	0.861068	0.510144	0.042177
0	H	0.633135	0.123246	0.043105
0	H	0.475328	0.350731	0.0415315
0	H	0.476132	0.122501	0.53962
0	H	0.860188	0.351097	0.541949
0	H	0.633715	0.508987	0.540753
0	H	0.118493	0.477808	0.944749
0	H	0.346493	0.863965	0.944368
0	H	0.504217	0.63663	0.946053
0	H	0.488156	0.80198	0.512647
0	H	0.179613	0.683771	0.510484
0	H	0.2989	0.49407	0.511158
0	H	0.798841	0.494701	0.977039
0	H	0.679558	0.185456	0.977873
0	H	0.493145	0.304496	0.976858
0	H	0.49138	0.185571	0.474808
0	H	0.798637	0.303584	0.476725
0	H	0.680197	0.491977	0.475986
0	H	0.179908	0.491918	0.010128
0	H	0.299681	0.801923	0.0096013
0	H	0.485802	0.682498	0.0106847
0	H	0.403079	0.779959	0.463491
0	H	0.204648	0.621172	0.462632
0	H	0.361124	0.5797	0.462104
0	H	0.777109	0.409311	0.0261925
0	H	0.617384	0.208578	0.027394
0	H	0.576415	0.367181	0.0272825
0	H	0.576306	0.207304	0.524035
0	H	0.775338	0.366652	0.525443
0	H	0.617815	0.407764	0.526047
0	H	0.202728	0.578134	0.961531
0	H	0.361876	0.778466	0.960349
0	H	0.402956	0.619886	0.959938
0	C	0.575525	0.59571	0.446144
0	C	0.387007	0.976089	0.445977
0	C	0.00698556	0.407742	0.445631
0	C	0.589003	0.577273	0.041924
0	C	0.971279	0.392706	0.0417389
0	C	0.406442	0.0108277	0.0421115
0	C	0.40408	0.391822	0.541474
0	C	0.592461	0.0111959	0.541809
0	C	0.972504	0.579736	0.54138
0	C	0.390468	0.41013	0.945562
0	C	0.00809536	0.594849	0.945337
0	C	0.572883	0.976385	0.945727
0	H	0.631297	0.604005	0.421803
0	H	0.378287	0.0239805	0.422175
0	H	0.95978	0.351604	0.421535
0	H	0.59684	0.633624	0.0655962
0	H	0.019102	0.383744	0.0651051
0	H	0.350237	0.963192	0.0658002
0	H	0.348257	0.38342	0.565797
0	H	0.601175	0.963348	0.56568
0	H	0.0198287	0.635831	0.565453
0	H	0.382552	0.353716	0.921939
0	H	0.960383	0.603885	0.921874
0	H	0.62899	0.0241602	0.922022
0	H	0.529761	0.527766	0.447092
0	H	0.454722	0.997874	0.446577
0	H	0.98477	0.453776	0.446464
0	H	0.52158	0.530649	0.0416533
0	H	0.992899	0.460731	0.0415628
0	H	0.4524	0.988676	0.0418051
0	H	0.449809	0.459778	0.540599
0	H	0.524748	0.989416	0.54119
0	H	0.994595	0.533602	0.54047
0	H	0.457908	0.456711	0.945796
0	H	0.9864	0.526808	0.945528
0	H	0.526797	0.998376	0.946165
0	H	0.593977	0.613974	0.49404
0	H	0.369084	0.976005	0.494
0	H	0.00700046	0.389477	0.493575
0	H	0.606583	0.594999	0.993845
0	H	0.970894	0.374953	0.993608
0	H	0.388795	0.0109644	0.994044
0	H	0.385705	0.373652	0.493557
0	H	0.610377	0.0111875	0.493793
0	H	0.972425	0.598023	0.493451
0	H	0.372907	0.392489	0.993654
0	H	0.00837261	0.612607	0.993453
0	H	0.590642	0.976204	0.99376
0	C	0.359852	0.305501	0.342508
0	C	0.677396	0.0507286	0.342591
0	C	0.931855	0.624773	0.342619
0	C	0.301078	0.36165	0.148027
0	C	0.0473165	0.683602	0.14759
0	C	0.621788	0.935899	0.147735
0	C	0.619853	0.681971	0.644998
0	C	0.302265	0.936874	0.645071
0	C	0.0478214	0.362889	0.644572
0	C	0.678588	0.625923	0.839503
0	C	0.932334	0.304015	0.83959
0	C	0.357739	0.0515458	0.839914
0	C	0.273326	0.258467	0.331318
0	C	0.725074	0.0112824	0.331389
0	C	0.970548	0.711785	0.331705
0	C	0.254332	0.275116	0.160786
0	C	0.00886261	0.731901	0.160198
0	C	0.708002	0.974683	0.160174
0	C	0.706395	0.729134	0.656117
0	C	0.254593	0.976342	0.656247
0	C	0.00913887	0.275907	0.655614
0	C	0.725363	0.712457	0.82677
0	C	0.970783	0.255688	0.82708
0	C	0.271557	0.0127716	0.82738
0	C	0.235445	0.171187	0.324008
0	C	0.811839	0.060569	0.323827
0	C	0.920975	0.749636	0.324578
0	C	0.167684	0.237541	0.169257
0	C	0.0585919	0.81886	0.168538
0	C	0.745452	0.924811	0.168271
0	C	0.744173	0.816418	0.663354
0	C	0.167818	0.927088	0.663697
0	C	0.0587144	0.23808	0.662854
0	C	0.812012	0.750004	0.818293
0	C	0.921065	0.168707	0.818865
0	C	0.234125	0.062638	0.819167
0	H	0.16877	0.134785	0.314945
0	H	0.84871	0.0303183	0.314663
0	H	0.950645	0.816688	0.315719
0	H	0.131565	0.170897	0.179611
0	H	0.029123	0.85624	0.178712
0	H	0.811892	0.954527	0.178287
0	H	0.810863	0.852929	0.672341
0	H	0.130937	0.957345	0.672809
0	H	0.0290492	0.17105	0.671811
0	H	0.848156	0.816648	0.807953
0	H	0.95052	0.131292	0.80878
0	H	0.167711	0.0329252	0.80907
0	C	0.28222	0.130141	0.329529
0	C	0.851748	0.148208	0.329181
0	C	0.833792	0.702375	0.330001
0	C	0.126857	0.284495	0.163214
0	C	0.145705	0.85843	0.162568
0	C	0.698629	0.837279	0.162285
0	C	0.697258	0.857322	0.65785
0	C	0.127883	0.839453	0.65829
0	C	0.145902	0.28534	0.657411
0	C	0.852786	0.702993	0.824293
0	C	0.833954	0.129151	0.824831
0	C	0.280948	0.150176	0.825128
0	C	0.368211	0.177236	0.341723
0	C	0.804068	0.187061	0.341547
0	C	0.795689	0.615939	0.341981
0	C	0.173575	0.370404	0.149361
0	C	0.183595	0.810141	0.148941
0	C	0.61297	0.799076	0.148914
0	C	0.611256	0.810102	0.645762
0	C	0.175544	0.800567	0.64599
0	C	0.184004	0.37174	0.64531
0	C	0.806032	0.617072	0.838102
0	C	0.796056	0.177463	0.838358
0	C	0.36658	0.188386	0.838614
0	H	0.403957	0.144579	0.346286
0	H	0.835825	0.255298	0.346122
0	H	0.727787	0.579784	0.346507
0	H	0.141086	0.406272	0.144299
0	H	0.251451	0.841668	0.143973
0	H	0.577162	0.730849	0.144043
0	H	0.575396	0.842644	0.641225
0	H	0.143765	0.732332	0.641388
0	H	0.251905	0.407895	0.640777
0	H	0.838476	0.581152	0.843114
0	H	0.728202	0.145944	0.843334
0	H	0.402387	0.256615	0.843471
0	C	0.406927	0.26423	0.348985
0	C	0.717561	0.138876	0.348979
0	C	0.844174	0.577241	0.349071
0	C	0.259951	0.408833	0.140996
0	C	0.134957	0.723453	0.140678
0	C	0.57473	0.847846	0.140814
0	C	0.572645	0.723102	0.638559
0	C	0.262072	0.848731	0.638639
0	C	0.135502	0.410408	0.638112
0	C	0.719662	0.57868	0.846472
0	C	0.844699	0.264174	0.846521
0	C	0.404785	0.139602	0.846836
0	C	0.220405	0.299056	0.327517
0	C	0.685736	0.917977	0.327808
0	C	0.0633451	0.765169	0.327954
0	C	0.294446	0.221712	0.165018
0	C	0.916107	0.69303	0.164436
0	C	0.761035	0.0678831	0.164488
0	C	0.75939	0.68863	0.659913
0	C	0.294001	0.0696499	0.659887
0	C	0.916347	0.22253	0.659385
0	C	0.685268	0.765877	0.822528
0	C	0.0635436	0.29459	0.822816
0	C	0.218529	0.919573	0.823062
0	H	0.241676	0.354187	0.357304
0	H	0.630608	0.884195	0.357273
0	H	0.0973499	0.743672	0.35741
0	H	0.34868	0.242046	0.134723
0	H	0.881839	0.638321	0.134465
0	H	0.740461	0.102309	0.134561
0	H	0.73805	0.633387	0.630235
0	H	0.348863	0.10338	0.630164
0	H	0.882344	0.24385	0.629769
0	H	0.630771	0.745345	0.852577
0	H	0.0977972	0.349226	0.852858
0	H	0.238933	0.885142	0.853134
0	H	0.155345	0.256065	0.341116
0	H	0.729009	0.896016	0.341911
0	H	0.0848323	0.830371	0.341925
0	H	0.251123	0.156055	0.15235
0	H	0.894648	0.737222	0.151409
0	H	0.826299	0.0895858	0.151478
0	H	0.824389	0.731609	0.646164
0	H	0.25063	0.091648	0.646139
0	H	0.894872	0.157249	0.645639
0	H	0.72849	0.831442	0.835487
0	H	0.0850163	0.250375	0.835737
0	H	0.153201	0.897899	0.835863
0	H	0.217367	0.318648	0.280537
0	H	0.666911	0.895244	0.280808
0	H	0.0858745	0.768747	0.280925
0	H	0.314739	0.219725	0.211938
0	H	0.893887	0.673323	0.211416
0	H	0.763374	0.0901036	0.211497
0	H	0.762608	0.669219	0.706915
0	H	0.313266	0.0923853	0.706836
0	H	0.893787	0.219203	0.706374
0	H	0.665378	0.768194	0.775539
0	H	0.0857438	0.314416	0.775847
0	H	0.216419	0.897335	0.776089
0	C	0.240871	0.0370902	0.323447
0	C	0.944247	0.199719	0.322757
0	C	0.781942	0.743737	0.323976
0	C	0.0344093	0.243391	0.170379
0	C	0.197687	0.951239	0.169587
0	C	0.739697	0.785179	0.169047
0	C	0.738498	0.950382	0.663828
0	C	0.0353578	0.787978	0.664547
0	C	0.197733	0.243964	0.663487
0	C	0.945226	0.744061	0.81706
0	C	0.78197	0.0363352	0.817858
0	C	0.239889	0.20226	0.818196
0	H	0.19244	0.00532718	0.358312
0	H	0.976552	0.183577	0.357757
0	H	0.798596	0.792772	0.358587
0	H	0.00196284	0.19352	0.136455
0	H	0.181291	0.984402	0.135381
0	H	0.789057	0.802041	0.134883
0	H	0.786807	0.982116	0.628877
0	H	0.00320047	0.804294	0.629542
0	H	0.181591	0.195456	0.628523
0	H	0.97776	0.794321	0.850696
0	H	0.799021	0.00314876	0.851588
0	H	0.190435	0.185437	0.852273
0	H	0.285468	0.0133991	0.328268
0	H	0.967128	0.267912	0.327118
0	H	0.714277	0.698981	0.329215
0	H	0.0108382	0.288099	0.164815
0	H	0.265357	0.973799	0.164364
0	H	0.695261	0.717234	0.163512
0	H	0.6938	0.973957	0.659041
0	H	0.0124435	0.719796	0.660047
0	H	0.265459	0.288838	0.658779
0	H	0.96882	0.699421	0.822958
0	H	0.714382	0.0136775	0.823763
0	H	0.28431	0.270211	0.82371
0	H	0.210996	0.0154718	0.278391
0	H	0.96591	0.190977	0.277814
0	H	0.78945	0.773231	0.278759
0	H	0.0138003	0.214931	0.215966
0	H	0.189957	0.972509	0.215018
0	H	0.768353	0.792646	0.214512
0	H	0.768484	0.972156	0.708836
0	H	0.0135541	0.796558	0.709482
0	H	0.189623	0.213786	0.708489
0	H	0.965692	0.771991	0.771309
0	H	0.788935	0.0151888	0.772166
0	H	0.211341	0.194726	0.772685
0	C	0.497834	0.313036	0.3646
0	C	0.668059	0.180896	0.36462
0	C	0.80295	0.485839	0.364441
0	C	0.308191	0.499584	0.123677
0	C	0.175922	0.673396	0.123578
0	C	0.484315	0.806601	0.123801
0	C	0.48175	0.674172	0.622953
0	C	0.311537	0.80669	0.622948
0	C	0.176713	0.501749	0.622562
0	C	0.671353	0.487879	0.863645
0	C	0.80371	0.314265	0.863478
0	C	0.495196	0.180878	0.863883
0	H	0.507327	0.349042	0.40708
0	H	0.631228	0.153579	0.406522
0	H	0.830259	0.47593	0.406295
0	H	0.344227	0.507877	0.0814959
0	H	0.147534	0.63666	0.0817677
0	H	0.475905	0.834459	0.0816107
0	H	0.472532	0.639273	0.579947
0	H	0.347401	0.833275	0.580558
0	H	0.149911	0.511356	0.580317
0	H	0.634356	0.479254	0.90535
0	H	0.832581	0.35176	0.904911
0	H	0.503862	0.152119	0.905479
0	H	0.534906	0.358329	0.329068
0	H	0.623789	0.173899	0.328617
0	H	0.810324	0.448708	0.328311
0	H	0.353002	0.538236	0.15892
0	H	0.169672	0.628664	0.159169
0	H	0.446106	0.813644	0.159097
0	H	0.44487	0.627859	0.657984
0	H	0.356699	0.814667	0.658514
0	H	0.168638	0.538922	0.6583
0	H	0.62742	0.449218	0.827965
0	H	0.809273	0.358293	0.827532
0	H	0.533594	0.175115	0.828102
0	H	0.525208	0.272473	0.372183
0	H	0.707801	0.248408	0.373172
0	H	0.735672	0.458365	0.372941
0	H	0.267525	0.526414	0.114757
0	H	0.242906	0.713134	0.114139
0	H	0.457306	0.739106	0.115046
0	H	0.453928	0.714509	0.616295
0	H	0.271872	0.738971	0.615193
0	H	0.244134	0.529406	0.614629
0	H	0.712058	0.461296	0.873275
0	H	0.73689	0.274492	0.873467
0	H	0.521776	0.24808	0.873638
