#******************************************
#
# CIF file created by Zeo++
# Zeo++ is an open source package to
# analyze microporous materials
#
#*******************************************

_cell_length_a		31.4262(0)
_cell_length_b		10.2917(0)
_cell_length_c		7.29701(0)
_cell_angle_alpha		90(0)
_cell_angle_beta		100.883(0)
_cell_angle_gamma		90(0)

_symmetry_space_group_name_H-M		'P1'
_symmetry_Int_Tables_number		1
_symmetry_cell_setting		Monoclinic

loop_
_symmetry_equiv_pos_as_xyz
'+x,+y,+z'

loop_
_atom_site_label
_atom_site_type_symbol
_atom_site_fract_x
_atom_site_fract_y
_atom_site_fract_z
0	S	0.742677	0.329396	0.888188
0	S	0.273887	0.329447	0.124577
0	S	0.238629	0.829219	0.886858
0	S	0.777929	0.829173	0.125846
0	O	0.52255	0.844665	0.758747
0	O	0.494098	0.845421	0.253849
0	O	0.0204029	0.340935	0.75748
0	O	0.996279	0.342032	0.255608
0	H	0.49625	0.866892	0.652967
0	H	0.520386	0.867652	0.359746
0	H	0.995042	0.367346	0.649763
0	H	0.0215955	0.368387	0.363578
0	O	0.561632	0.883267	0.540582
0	O	0.455004	0.882605	0.472412
0	O	0.0615021	0.390981	0.551536
0	O	0.955124	0.390057	0.46212
0	O	0.717859	0.369181	0.029224
0	O	0.298639	0.369269	0.983326
0	O	0.213616	0.869985	0.0267211
0	O	0.802875	0.870055	0.985793
0	O	0.784691	0.394424	0.903396
0	O	0.231874	0.394437	0.109661
0	O	0.280636	0.894324	0.902369
0	O	0.735906	0.894145	0.110601
0	C	0.615786	0.543657	0.894867
0	C	0.400951	0.5435	0.118033
0	C	0.111923	0.0395461	0.89571
0	C	0.904788	0.039559	0.117143
0	H	0.607728	0.441437	0.855253
0	H	0.409058	0.441357	0.157884
0	H	0.103547	0.938056	0.853283
0	H	0.913169	0.938035	0.159576
0	H	0.644081	0.53821	0.0114314
0	H	0.372677	0.537929	0.00136857
0	H	0.140206	0.0320051	0.0121017
0	H	0.876534	0.0320483	0.000608472
0	C	0.577534	0.607435	0.962365
0	C	0.439203	0.607363	0.0506199
0	C	0.0739041	0.10349	0.964827
0	C	0.94283	0.103532	0.0482839
0	H	0.569884	0.552717	0.0827417
0	H	0.446881	0.552647	0.930289
0	H	0.0660869	0.0475778	0.0838456
0	H	0.950654	0.0477214	0.929193
0	H	0.547952	0.602061	0.852218
0	H	0.468776	0.602058	0.160802
0	H	0.0443153	0.100108	0.854559
0	H	0.972409	0.10006	0.158644
0	C	0.587042	0.749243	0.0185273
0	C	0.429663	0.749129	0.994306
0	C	0.0839501	0.244406	0.0244942
0	C	0.932815	0.244474	0.988731
0	H	0.613365	0.753967	0.143245
0	H	0.403358	0.753753	0.869513
0	H	0.110118	0.246651	0.150122
0	H	0.906695	0.246771	0.862954
0	H	0.558069	0.793066	0.0614629
0	H	0.45863	0.79303	0.951398
0	H	0.0550675	0.288757	0.0674538
0	H	0.961723	0.288874	0.946026
0	C	0.600192	0.830742	0.860213
0	C	0.416468	0.830659	0.1525
0	C	0.0980011	0.327667	0.869913
0	C	0.918697	0.327673	0.143206
0	C	0.63795	0.762532	0.786899
0	C	0.378706	0.762427	0.225738
0	C	0.135542	0.258777	0.795899
0	C	0.881126	0.258733	0.216947
0	H	0.66558	0.761372	0.910004
0	H	0.351093	0.761162	0.102573
0	H	0.162919	0.25408	0.919847
0	H	0.853778	0.254042	0.0928907
0	C	0.653191	0.840259	0.63103
0	C	0.363425	0.840177	0.381482
0	C	0.151697	0.33869	0.644355
0	C	0.86491	0.338594	0.368358
0	H	0.626634	0.846854	0.506752
0	H	0.389966	0.846834	0.505816
0	H	0.125247	0.350892	0.520726
0	H	0.89133	0.350783	0.492127
0	H	0.660609	0.941688	0.676657
0	H	0.355999	0.941577	0.335777
0	H	0.160333	0.438183	0.696329
0	H	0.856285	0.438084	0.316418
0	C	0.693201	0.778419	0.574683
0	C	0.32342	0.778305	0.437851
0	C	0.19085	0.275381	0.582778
0	C	0.825734	0.275228	0.429675
0	H	0.701505	0.832358	0.454411
0	H	0.315075	0.832267	0.55793
0	H	0.199136	0.33081	0.463817
0	H	0.817384	0.330659	0.548538
0	H	0.721833	0.788088	0.688615
0	H	0.294798	0.787922	0.32371
0	H	0.219909	0.281462	0.695331
0	H	0.796717	0.28126	0.316967
0	C	0.684831	0.636896	0.527218
0	C	0.331796	0.636802	0.485324
0	C	0.181174	0.135326	0.530273
0	C	0.835424	0.135185	0.482254
0	C	0.671884	0.559652	0.685055
0	C	0.344772	0.559553	0.327535
0	C	0.168045	0.0568509	0.686418
0	C	0.848589	0.0567483	0.326123
0	H	0.697273	0.57607	0.813264
0	H	0.3194	0.575982	0.199267
0	H	0.193468	0.0717225	0.815051
0	H	0.823192	0.0716676	0.197418
0	C	0.628359	0.617467	0.727992
0	C	0.388308	0.617391	0.284763
0	C	0.124843	0.115335	0.731246
0	C	0.891812	0.115271	0.28155
0	C	0.614014	0.967265	0.935069
0	C	0.402621	0.967114	0.0774962
0	C	0.112879	0.46156	0.951976
0	C	0.90382	0.461548	0.061076
0	H	0.59065	0.0090928	0.0126746
0	H	0.425946	0.00888018	0.999635
0	H	0.089512	0.503899	0.0290263
0	H	0.927182	0.503855	0.983973
0	H	0.61749	0.0349763	0.822727
0	H	0.399155	0.034961	0.189664
0	H	0.117933	0.531034	0.844215
0	H	0.898759	0.531068	0.168765
0	H	0.645636	0.963437	0.0305613
0	H	0.370974	0.963197	0.982095
0	H	0.144085	0.45312	0.0500015
0	H	0.872619	0.453089	0.963057
0	C	0.561017	0.85342	0.70323
0	C	0.455629	0.853381	0.309508
0	C	0.0596914	0.354583	0.710424
0	C	0.956966	0.354566	0.30285
0	C	0.688257	0.590082	0.360247
0	C	0.328352	0.589997	0.652264
0	C	0.183654	0.090351	0.361267
0	C	0.832907	0.090176	0.651195
0	H	0.696953	0.64974	0.251022
0	H	0.319615	0.649638	0.761405
0	H	0.192464	0.150423	0.252854
0	H	0.82405	0.150232	0.759532
0	H	0.682642	0.490218	0.316425
0	H	0.33398	0.49014	0.696132
0	H	0.177073	0.991288	0.315195
0	H	0.839497	0.991119	0.697312
0	C	0.669095	0.412185	0.64775
0	C	0.34754	0.412078	0.36475
0	C	0.165051	0.909843	0.646272
0	C	0.851566	0.909738	0.366142
0	H	0.648625	0.393965	0.508304
0	H	0.368045	0.393791	0.504108
0	H	0.144671	0.892598	0.506481
0	H	0.871981	0.892414	0.505838
0	H	0.651846	0.36371	0.748655
0	H	0.364739	0.363574	0.263691
0	H	0.147754	0.860448	0.746194
0	H	0.868815	0.860379	0.266042
0	C	0.713707	0.350569	0.65558
0	C	0.30292	0.350565	0.357105
0	C	0.209769	0.848969	0.653877
0	C	0.806849	0.84892	0.358728
0	H	0.732541	0.414193	0.573835
0	H	0.28411	0.414216	0.438932
0	H	0.22842	0.912551	0.571327
0	H	0.788223	0.91253	0.441348
0	C	0.711884	0.215077	0.574307
0	C	0.304734	0.21506	0.438366
0	C	0.208189	0.713207	0.573857
0	C	0.808436	0.713151	0.438764
0	C	0.729475	0.120993	0.692891
0	C	0.287123	0.121014	0.319781
0	C	0.225785	0.619797	0.693586
0	C	0.790837	0.619746	0.319041
0	H	0.731438	0.019144	0.656957
0	H	0.285162	0.0191538	0.355686
0	H	0.227979	0.517819	0.658752
0	H	0.788654	0.517762	0.353873
0	C	0.748603	0.159707	0.888466
0	C	0.267977	0.159783	0.12428
0	C	0.244582	0.659566	0.889111
0	C	0.771993	0.659484	0.123529
0	H	0.782778	0.124612	0.926167
0	H	0.233788	0.124696	0.0867004
0	H	0.278737	0.624666	0.928264
0	H	0.737847	0.624614	0.0845353
0	H	0.732356	0.106152	0.989823
0	H	0.284163	0.106194	0.0227611
0	H	0.228134	0.606562	0.990296
0	H	0.788434	0.606535	0.0222733
0	C	0.692572	0.194577	0.374842
0	C	0.324046	0.19455	0.637841
0	C	0.189031	0.692193	0.374325
0	C	0.827602	0.692159	0.638292
0	H	0.701563	0.100257	0.321862
0	H	0.31513	0.100065	0.69068
0	H	0.198285	0.598079	0.321626
0	H	0.818436	0.597924	0.690892
0	H	0.702646	0.270272	0.283562
0	H	0.313881	0.270051	0.729138
0	H	0.198885	0.768191	0.283047
0	H	0.817648	0.767998	0.729567
0	H	0.65697	0.19754	0.35096
0	H	0.359647	0.197813	0.661807
0	H	0.153407	0.694254	0.350392
0	H	0.863223	0.69459	0.662297
0	C	0.592275	0.603263	0.555484
0	C	0.424363	0.603252	0.457441
0	C	0.0886489	0.105453	0.55848
0	C	0.927971	0.105312	0.45447
0	H	0.560205	0.622389	0.587694
0	H	0.456449	0.622245	0.425308
0	H	0.0567249	0.126246	0.591296
0	H	0.95991	0.126024	0.421832
0	H	0.59125	0.505234	0.496779
0	H	0.425346	0.505309	0.516336
0	H	0.0867833	0.00803739	0.497372
0	H	0.929792	0.00790616	0.515569
0	H	0.596853	0.671239	0.444479
0	H	0.419778	0.671426	0.568219
0	H	0.0938222	0.173848	0.449033
0	H	0.922787	0.173753	0.563839
