#******************************************
#
# CIF file created by Zeo++
# Zeo++ is an open source package to
# analyze microporous materials
#
#*******************************************

_cell_length_a		24.6396(0)
_cell_length_b		24.6433(0)
_cell_length_c		10.8455(0)
_cell_angle_alpha		90(0)
_cell_angle_beta		90(0)
_cell_angle_gamma		119.984(0)

_symmetry_space_group_name_H-M		'P1'
_symmetry_Int_Tables_number		1
_symmetry_cell_setting		Monoclinic

loop_
_symmetry_equiv_pos_as_xyz
'+x,+y,+z'

loop_
_atom_site_label
_atom_site_type_symbol
_atom_site_fract_x
_atom_site_fract_y
_atom_site_fract_z
0	N	0.51938	0.343155	0.276191
0	N	0.655188	0.175884	0.250107
0	N	0.821519	0.478204	0.262602
0	N	0.445906	0.351789	0.505343
0	N	0.648154	0.0998239	0.491012
0	N	0.900379	0.549755	0.498167
0	N	0.438974	0.193144	0.984012
0	N	0.803903	0.244684	0.978754
0	N	0.752803	0.559123	0.983064
0	N	0.605776	0.495718	0.987852
0	N	0.50199	0.108808	0.980091
0	N	0.887495	0.391698	0.982982
0	C	0.602011	0.317688	0.263298
0	C	0.679469	0.283879	0.259381
0	C	0.713302	0.395134	0.261816
0	C	0.616797	0.269491	0.260619
0	C	0.727667	0.346844	0.259142
0	C	0.650315	0.380338	0.263607
0	H	0.579586	0.22042	0.261376
0	H	0.776745	0.358661	0.258672
0	H	0.638462	0.417548	0.26725
0	C	0.535065	0.300298	0.271179
0	C	0.696706	0.234227	0.266888
0	C	0.762891	0.462016	0.269787
0	H	0.50204	0.249233	0.273192
0	H	0.746481	0.251974	0.290205
0	H	0.74482	0.494586	0.283811
0	C	0.489808	0.367334	0.709455
0	C	0.631551	0.123958	0.69847
0	C	0.874063	0.507511	0.704172
0	C	0.457907	0.303347	0.738247
0	C	0.695434	0.155928	0.728344
0	C	0.842217	0.539576	0.733873
0	H	0.426376	0.269667	0.669862
0	H	0.729477	0.158844	0.659985
0	H	0.83976	0.571039	0.665709
0	C	0.467157	0.282839	0.853104
0	C	0.715385	0.184519	0.844374
0	C	0.813128	0.530608	0.849442
0	C	0.507661	0.326689	0.939423
0	C	0.671061	0.180319	0.930414
0	C	0.816767	0.490095	0.935336
0	H	0.515679	0.310255	0.0275908
0	H	0.687072	0.203784	0.0196762
0	H	0.792882	0.482359	0.0241561
0	C	0.538121	0.391054	0.9124
0	C	0.606794	0.146788	0.902222
0	C	0.850267	0.459309	0.907313
0	C	0.529115	0.411276	0.797447
0	C	0.587165	0.11864	0.786274
0	C	0.878896	0.468119	0.791787
0	H	0.553429	0.461415	0.77685
0	H	0.537121	0.0930568	0.764861
0	H	0.904437	0.443586	0.770488
0	C	0.486657	0.389628	0.584209
0	C	0.609363	0.0982735	0.573273
0	C	0.899602	0.510746	0.578963
0	H	0.522552	0.438852	0.566005
0	H	0.558778	0.0800154	0.558437
0	H	0.915361	0.476509	0.562602
0	C	0.435997	0.214538	0.876703
0	C	0.783527	0.221268	0.870378
0	C	0.776322	0.562	0.874853
0	H	0.411814	0.18536	0.795198
0	H	0.813437	0.226831	0.78983
0	H	0.77078	0.586184	0.793991
0	C	0.581696	0.436056	0.00494351
0	C	0.561762	0.144723	0.995465
0	C	0.851836	0.415749	0.999713
0	H	0.591133	0.413818	0.0845574
0	H	0.584257	0.176398	0.0751096
0	H	0.820129	0.406316	0.0793349
0	C	0.452731	0.324786	0.289629
0	C	0.672958	0.127524	0.271094
0	C	0.86981	0.544603	0.280017
0	H	0.423137	0.276135	0.327599
0	H	0.72192	0.146993	0.307499
0	H	0.850495	0.574172	0.316879
0	C	0.447967	0.372719	0.377146
0	C	0.625655	0.07805	0.364553
0	C	0.920791	0.548098	0.370964
0	H	0.488054	0.420862	0.358148
0	H	0.577671	0.0706134	0.346154
0	H	0.928446	0.50767	0.352741
0	C	0.385809	0.369419	0.340175
0	C	0.626835	0.0172778	0.334544
0	C	0.98077	0.610026	0.337329
0	H	0.347329	0.337191	0.40181
0	H	0.658408	0.0112153	0.398429
0	H	0.987076	0.648191	0.399961
0	H	0.389322	0.415617	0.349781
0	H	0.579971	0.975776	0.346762
0	H	0.0227573	0.605385	0.348398
0	C	0.3725	0.345703	0.205945
0	C	0.650057	0.023723	0.200442
0	C	0.97247	0.625049	0.203001
0	H	0.37187	0.380872	0.143741
0	H	0.614665	0.986251	0.141263
0	H	0.00912302	0.6263	0.142442
0	H	0.325719	0.30346	0.198347
0	H	0.692226	0.0188653	0.195972
0	H	0.977265	0.672	0.196806
0	C	0.423911	0.330959	0.167625
0	C	0.664873	0.0886983	0.153805
0	C	0.906878	0.574326	0.160393
0	H	0.459694	0.369312	0.110298
0	H	0.62605	0.0848993	0.0961577
0	H	0.910028	0.538867	0.102987
0	H	0.405405	0.287976	0.111616
0	H	0.707224	0.111056	0.0955859
0	H	0.883545	0.593647	0.103123
0	C	0.411102	0.124814	0.999854
0	C	0.87202	0.284902	0.997967
0	C	0.712495	0.586998	0.00141831
0	H	0.398446	0.0984457	0.910448
0	H	0.899404	0.299762	0.909811
0	H	0.697411	0.598952	0.912871
0	C	0.353003	0.0973382	0.0846266
0	C	0.898702	0.253429	0.0825733
0	C	0.744015	0.645631	0.0846523
0	H	0.355763	0.133214	0.149608
0	H	0.862326	0.220076	0.146467
0	H	0.777646	0.643113	0.148594
0	H	0.309774	0.0820352	0.030945
0	H	0.914104	0.22566	0.0286612
0	H	0.771518	0.68849	0.0297744
0	C	0.352576	0.0425488	0.153886
0	C	0.953215	0.307171	0.153641
0	C	0.690356	0.646621	0.155644
0	H	0.343655	0.0445585	0.253228
0	H	0.950704	0.295409	0.252681
0	H	0.702336	0.656334	0.254512
0	H	0.314101	0.997186	0.120532
0	H	0.998719	0.314306	0.120633
0	H	0.683032	0.684774	0.121976
0	C	0.416658	0.0472591	0.132525
0	C	0.948598	0.366695	0.13405
0	C	0.630874	0.582349	0.137312
0	H	0.411811	0.00896367	0.0720518
0	H	0.987111	0.400569	0.0744972
0	H	0.596808	0.58659	0.0776023
0	H	0.437692	0.0431991	0.219045
0	H	0.952348	0.391164	0.221241
0	H	0.606578	0.562051	0.224841
0	C	0.458619	0.111565	0.0705905
0	C	0.884507	0.344742	0.0714092
0	C	0.652827	0.539984	0.075675
0	H	0.482809	0.14814	0.143421
0	H	0.847509	0.331341	0.143713
0	H	0.666356	0.516718	0.148438
0	N	0.172707	0.070911	0.473153
0	N	0.926438	0.100976	0.473415
0	N	0.896376	0.824685	0.472836
0	N	0.259321	0.107963	0.70821
0	N	0.889411	0.150367	0.708589
0	N	0.847116	0.738347	0.708146
0	N	0.15119	0.93547	0.197867
0	N	0.0616073	0.213884	0.198519
0	N	0.78334	0.846571	0.198081
0	N	0.0217084	0.809461	0.197373
0	N	0.187758	0.210563	0.197787
0	N	0.786373	0.975818	0.197697
0	C	0.0632664	0.0415156	0.480141
0	C	0.955779	0.020917	0.480232
0	C	0.976416	0.934036	0.480119
0	C	0.0411483	0.976925	0.479982
0	C	0.0203671	0.0633708	0.480149
0	C	0.933957	0.956188	0.480088
0	H	0.074816	0.96029	0.481389
0	H	0.0369336	0.113642	0.481727
0	H	0.883675	0.922536	0.48158
0	C	0.131231	0.0881048	0.486079
0	C	0.90918	0.0422998	0.486212
0	C	0.955035	0.866069	0.48608
0	H	0.141712	0.136636	0.503421
0	H	0.860627	0.00429876	0.503455
0	H	0.993012	0.855507	0.503741
0	C	0.211195	0.0749279	0.909012
0	C	0.922222	0.135107	0.909475
0	C	0.862489	0.78645	0.909077
0	C	0.214315	0.131816	0.938447
0	C	0.865281	0.0813374	0.938587
0	C	0.916173	0.783128	0.938366
0	H	0.23153	0.169144	0.869573
0	H	0.828038	0.061381	0.869519
0	H	0.936145	0.765803	0.869368
0	C	0.195133	0.140175	0.0554289
0	C	0.856777	0.0536814	0.0554925
0	C	0.943787	0.802224	0.0553342
0	C	0.173884	0.0919018	0.14269
0	C	0.904988	0.0805828	0.142917
0	C	0.916889	0.823569	0.142684
0	H	0.158703	0.0986468	0.23351
0	H	0.89813	0.0585866	0.233692
0	H	0.938832	0.838674	0.233513
0	C	0.171459	0.0351348	0.114066
0	C	0.961812	0.134889	0.114543
0	C	0.862634	0.826191	0.114162
0	C	0.189936	0.0266319	0.997008
0	C	0.970448	0.162019	0.997636
0	C	0.835592	0.807832	0.997164
0	H	0.187364	0.982121	0.975119
0	H	0.0149844	0.203966	0.976
0	H	0.793727	0.81058	0.975445
0	C	0.226889	0.0625398	0.784075
0	C	0.934748	0.163381	0.784724
0	C	0.83422	0.770744	0.784319
0	H	0.207408	0.0121993	0.763634
0	H	0.985101	0.194419	0.764622
0	H	0.803248	0.790151	0.764241
0	C	0.146155	0.985105	0.20871
0	C	0.0117747	0.159388	0.209315
0	C	0.837984	0.851531	0.20888
0	H	0.122779	0.994605	0.286435
0	H	0.00204363	0.126495	0.287077
0	H	0.870857	0.874847	0.286601
0	C	0.00363421	0.804044	0.0838184
0	C	0.193102	0.198055	0.0840932
0	C	0.798834	0.993804	0.0840534
0	H	0.0296449	0.80266	0.0022564
0	H	0.194251	0.225429	0.00270789
0	H	0.771375	0.967731	0.00265517
0	C	0.239791	0.117944	0.487214
0	C	0.879497	0.121156	0.487537
0	C	0.876126	0.757563	0.486982
0	H	0.248202	0.164891	0.518683
0	H	0.832505	0.0826712	0.51886
0	H	0.914616	0.748995	0.518098
0	C	0.270142	0.0930076	0.581973
0	C	0.90453	0.176331	0.582536
0	C	0.821035	0.727542	0.582182
0	H	0.251119	0.0417286	0.56565
0	H	0.955849	0.208464	0.566362
0	H	0.788969	0.746844	0.566213
0	C	0.340577	0.129513	0.548561
0	C	0.86825	0.210507	0.549304
0	C	0.786644	0.657096	0.549011
0	H	0.363807	0.102668	0.572807
0	H	0.895125	0.260489	0.574161
0	H	0.736634	0.634212	0.57372
0	H	0.364855	0.174058	0.60075
0	H	0.823526	0.190167	0.600995
0	H	0.806771	0.632561	0.600853
0	C	0.343386	0.142553	0.408986
0	C	0.855621	0.20072	0.409568
0	C	0.796471	0.654147	0.409321
0	H	0.377625	0.192293	0.389017
0	H	0.806097	0.185819	0.389127
0	H	0.811473	0.61957	0.389045
0	H	0.359305	0.114273	0.35751
0	H	0.884445	0.244949	0.35847
0	H	0.752212	0.638624	0.358227
0	C	0.277081	0.126136	0.367373
0	C	0.871455	0.150436	0.367819
0	C	0.846671	0.720239	0.367372
0	H	0.255039	0.0825284	0.312161
0	H	0.914977	0.171662	0.312336
0	H	0.825334	0.742519	0.312147
0	H	0.277626	0.162845	0.308142
0	H	0.834485	0.114428	0.308803
0	H	0.882597	0.719263	0.308073
0	C	0.120841	0.886235	0.292617
0	C	0.110772	0.232535	0.293385
0	C	0.764536	0.876884	0.293065
0	H	0.0868899	0.89255	0.351486
0	H	0.10443	0.192144	0.351863
0	H	0.804873	0.910916	0.351679
0	C	0.0847518	0.820557	0.228447
0	C	0.176471	0.262322	0.229248
0	C	0.734642	0.91279	0.229266
0	H	0.112149	0.819487	0.147184
0	H	0.177463	0.290862	0.148193
0	H	0.705964	0.885269	0.148341
0	C	0.081752	0.774113	0.327894
0	C	0.222894	0.305616	0.32884
0	C	0.691484	0.915859	0.329313
0	H	0.0349578	0.749295	0.371511
0	H	0.247813	0.283644	0.372138
0	H	0.713659	0.962631	0.373033
0	H	0.0894373	0.737678	0.285892
0	H	0.259246	0.349808	0.286988
0	H	0.64729	0.908284	0.287875
0	C	0.132892	0.812863	0.423805
0	C	0.184084	0.317742	0.42507
0	C	0.679268	0.864652	0.424969
0	H	0.111803	0.809898	0.515104
0	H	0.187078	0.29944	0.516175
0	H	0.697414	0.885662	0.516321
0	H	0.165243	0.794506	0.435958
0	H	0.20238	0.368411	0.437649
0	H	0.628584	0.832214	0.43717
0	C	0.168267	0.88097	0.377415
0	C	0.115963	0.28504	0.378657
0	C	0.712101	0.829411	0.378208
0	H	0.183966	0.915304	0.452997
0	H	0.081599	0.26627	0.454198
0	H	0.730977	0.813829	0.453598
0	H	0.210881	0.890361	0.325813
0	H	0.106559	0.318332	0.327312
0	H	0.678868	0.786726	0.326826
0	N	0.318202	0.506709	0.712059
0	N	0.490506	0.809201	0.712109
0	N	0.188084	0.678986	0.711903
0	N	0.305112	0.426838	0.948785
0	N	0.570734	0.876519	0.948352
0	N	0.120968	0.691998	0.948294
0	N	0.163502	0.453388	0.429306
0	N	0.544274	0.708239	0.429089
0	N	0.289316	0.83364	0.428877
0	N	0.463373	0.56083	0.432105
0	N	0.436823	0.900605	0.432001
0	N	0.0966623	0.533992	0.432115
0	C	0.345371	0.615593	0.715164
0	C	0.381636	0.727326	0.715163
0	C	0.269881	0.651875	0.715106
0	C	0.283168	0.602647	0.714769
0	C	0.394605	0.678088	0.714819
0	C	0.319121	0.714058	0.714768
0	H	0.245179	0.55391	0.716609
0	H	0.443351	0.688822	0.716695
0	H	0.308359	0.752048	0.716607
0	C	0.36105	0.564915	0.724422
0	C	0.432237	0.793687	0.724367
0	C	0.203517	0.636176	0.724253
0	H	0.41096	0.581735	0.744911
0	H	0.415285	0.826696	0.744703
0	H	0.170467	0.586254	0.744633
0	C	0.289607	0.458406	0.149303
0	C	0.539103	0.829257	0.148745
0	C	0.168033	0.707582	0.148877
0	C	0.353486	0.488103	0.179039
0	C	0.509419	0.863442	0.178678
0	C	0.133767	0.64374	0.178797
0	H	0.386831	0.489205	0.110967
0	H	0.508268	0.895686	0.110688
0	H	0.101446	0.610396	0.110845
0	C	0.374388	0.516582	0.29472
0	C	0.480967	0.855846	0.294391
0	C	0.141366	0.622857	0.294485
0	C	0.331218	0.514617	0.38113
0	C	0.482915	0.814584	0.380664
0	C	0.182675	0.666014	0.380758
0	H	0.347926	0.53709	0.471
0	H	0.460425	0.808755	0.470546
0	H	0.188485	0.649319	0.470616
0	C	0.267039	0.484326	0.35229
0	C	0.513174	0.780676	0.351643
0	C	0.216625	0.730164	0.351777
0	C	0.24633	0.456218	0.236454
0	C	0.541271	0.788106	0.235769
0	C	0.209212	0.750852	0.235919
0	H	0.196295	0.432878	0.214903
0	H	0.564582	0.761386	0.214119
0	H	0.235967	0.800864	0.214266
0	C	0.267438	0.432351	0.0240932
0	C	0.565077	0.833184	0.0234032
0	C	0.164147	0.729686	0.0235818
0	H	0.218919	0.42076	0.00365743
0	H	0.576446	0.796125	0.00265371
0	H	0.201086	0.778172	0.00306773
0	C	0.442628	0.552222	0.320061
0	C	0.445228	0.888339	0.319905
0	C	0.108769	0.554645	0.320003
0	H	0.471792	0.571081	0.23634
0	H	0.426068	0.898395	0.236316
0	H	0.0984904	0.525415	0.236398
0	C	0.223554	0.485078	0.445953
0	C	0.512345	0.736386	0.44527
0	C	0.260888	0.773599	0.445447
0	H	0.247494	0.514506	0.527557
0	H	0.482612	0.730664	0.526513
0	H	0.266311	0.749608	0.527063
0	C	0.335381	0.457902	0.732418
0	C	0.539092	0.875279	0.732206
0	C	0.122045	0.66167	0.732054
0	H	0.383275	0.476714	0.773609
0	H	0.520095	0.90418	0.773581
0	H	0.0930531	0.613786	0.773327
0	C	0.286105	0.406434	0.820386
0	C	0.590924	0.877915	0.819754
0	C	0.119583	0.710894	0.819787
0	H	0.238193	0.397721	0.796869
0	H	0.599901	0.838892	0.796163
0	H	0.158678	0.758843	0.796256
0	C	0.291021	0.347689	0.789998
0	C	0.649371	0.941728	0.788838
0	C	0.0558322	0.705738	0.789077
0	H	0.245722	0.304532	0.802615
0	H	0.692702	0.939779	0.800602
0	H	0.0578179	0.750995	0.801338
0	H	0.324567	0.344235	0.852952
0	H	0.652841	0.978603	0.85215
0	H	0.0188819	0.67221	0.852107
0	C	0.314311	0.355606	0.655648
0	C	0.640914	0.957093	0.654771
0	C	0.0405408	0.682251	0.654823
0	H	0.355551	0.349086	0.649488
0	H	0.646698	0.00455363	0.649077
0	H	0.992937	0.640842	0.648757
0	H	0.278391	0.319625	0.595091
0	H	0.677032	0.957715	0.593707
0	H	0.0402488	0.717989	0.594019
0	C	0.331139	0.421815	0.613105
0	C	0.57486	0.907154	0.612613
0	C	0.0901891	0.665721	0.612565
0	H	0.29495	0.420045	0.550282
0	H	0.577027	0.872868	0.55001
0	H	0.124529	0.70201	0.549819
0	H	0.375673	0.44542	0.561323
0	H	0.550761	0.927532	0.560725
0	H	0.0695311	0.621202	0.560794
0	C	0.53107	0.602564	0.454138
0	C	0.394863	0.926301	0.454274
0	C	0.0708455	0.46634	0.454335
0	H	0.559977	0.61677	0.367824
0	H	0.380585	0.941039	0.36807
0	H	0.0561488	0.43737	0.368117
0	C	0.55711	0.573141	0.545611
0	C	0.424091	0.981636	0.546042
0	C	0.0154329	0.440288	0.545911
0	H	0.519182	0.538137	0.604843
0	H	0.459147	0.978785	0.605293
0	H	0.0182811	0.478186	0.605154
0	H	0.577166	0.548173	0.496313
0	H	0.44892	0.0267044	0.49689
0	H	0.970404	0.420151	0.49667
0	C	0.606769	0.627732	0.623692
0	C	0.369361	0.976435	0.624103
0	C	0.0204917	0.390677	0.623947
0	H	0.654234	0.635853	0.604015
0	H	0.361015	0.0156345	0.604541
0	H	0.981218	0.343194	0.604341
0	H	0.598574	0.616415	0.722891
0	H	0.380657	0.979529	0.723347
0	H	0.0174009	0.398869	0.723169
0	C	0.121877	0.457354	0.522293
0	C	0.540169	0.6626	0.522116
0	C	0.334862	0.875164	0.522029
0	H	0.147199	0.496592	0.589766
0	H	0.500907	0.648793	0.589475
0	H	0.348801	0.849777	0.589316
0	C	0.0836403	0.395087	0.5932
0	C	0.602396	0.686501	0.593152
0	C	0.310736	0.91324	0.593305
0	H	0.0766427	0.355061	0.535501
0	H	0.642463	0.719567	0.535608
0	H	0.277589	0.920176	0.535836
0	H	0.108621	0.394055	0.676525
0	H	0.603372	0.712448	0.676524
0	H	0.284826	0.888163	0.676642
