#******************************************
#
# CIF file created by Zeo++
# Zeo++ is an open source package to
# analyze microporous materials
#
#*******************************************

_cell_length_a		18.6855(0)
_cell_length_b		18.7339(0)
_cell_length_c		18.7056(0)
_cell_angle_alpha		90(0)
_cell_angle_beta		90(0)
_cell_angle_gamma		119.52(0)

_symmetry_space_group_name_H-M		'P1'
_symmetry_Int_Tables_number		1
_symmetry_cell_setting		Monoclinic

loop_
_symmetry_equiv_pos_as_xyz
'+x,+y,+z'

loop_
_atom_site_label
_atom_site_type_symbol
_atom_site_fract_x
_atom_site_fract_y
_atom_site_fract_z
0	O	0.0842268	0.23264	0.105372
0	O	0.785975	0.862271	0.111133
0	O	0.15233	0.931965	0.10777
0	O	0.750899	0.564578	0.440828
0	O	0.455093	0.19875	0.443219
0	O	0.822965	0.267476	0.439978
0	O	0.41478	0.898372	0.773987
0	O	0.119237	0.531052	0.773547
0	O	0.487171	0.600658	0.775907
0	O	0.36844	0.298261	0.0091364
0	O	0.717426	0.0783286	0.00732209
0	O	0.938012	0.648144	0.00745072
0	O	0.0368099	0.633198	0.341795
0	O	0.383222	0.412704	0.343404
0	O	0.606582	0.98376	0.341306
0	O	0.698168	0.96593	0.672269
0	O	0.0488932	0.746855	0.673391
0	O	0.273314	0.316263	0.675888
0	N	0.286809	0.343923	0.175025
0	N	0.673413	0.956165	0.174669
0	N	0.0638716	0.727985	0.173375
0	N	0.955141	0.678311	0.506295
0	N	0.341014	0.289712	0.509958
0	N	0.733409	0.0634694	0.505506
0	N	0.619712	0.0125339	0.838169
0	N	0.00328711	0.620893	0.838354
0	N	0.398253	0.396497	0.840946
0	N	0.235613	0.104254	0.087443
0	N	0.913435	0.139487	0.0831814
0	N	0.873427	0.778788	0.087371
0	N	0.903728	0.438061	0.417722
0	N	0.579751	0.475467	0.418932
0	N	0.545409	0.118498	0.418105
0	N	0.566738	0.771311	0.749988
0	N	0.243974	0.808719	0.751391
0	N	0.208616	0.448286	0.752787
0	C	0.238506	0.321166	0.235305
0	C	0.695237	0.931409	0.236172
0	C	0.0870991	0.774978	0.234562
0	C	0.908234	0.655332	0.567465
0	C	0.363063	0.264151	0.57077
0	C	0.758311	0.110422	0.566622
0	C	0.573097	0.990846	0.899576
0	C	0.026343	0.596941	0.899702
0	C	0.421424	0.443132	0.90226
0	C	0.155253	0.27571	0.219018
0	C	0.740588	0.892497	0.221969
0	C	0.123508	0.858191	0.219605
0	C	0.824709	0.609101	0.552658
0	C	0.408793	0.225847	0.555379
0	C	0.795891	0.193802	0.551738
0	C	0.489498	0.944855	0.885253
0	C	0.0735203	0.560057	0.885174
0	C	0.457876	0.526462	0.887534
0	C	0.146037	0.264367	0.142517
0	C	0.753489	0.89376	0.145798
0	C	0.122313	0.869003	0.143149
0	C	0.813903	0.597029	0.476355
0	C	0.421815	0.228493	0.479192
0	C	0.793301	0.204652	0.475505
0	C	0.478066	0.931481	0.809084
0	C	0.086157	0.561468	0.808913
0	C	0.456983	0.537614	0.811163
0	C	0.235296	0.301212	0.109524
0	C	0.716931	0.945588	0.110274
0	C	0.0719028	0.780651	0.108729
0	C	0.902417	0.634242	0.441698
0	C	0.384321	0.280071	0.444981
0	C	0.741779	0.116469	0.44103
0	C	0.566223	0.967979	0.774038
0	C	0.0484117	0.612556	0.774051
0	C	0.406645	0.449446	0.776421
0	C	0.250151	0.233149	0.0882832
0	C	0.784423	0.0270724	0.0873518
0	C	0.988922	0.765471	0.0874526
0	C	0.917977	0.566714	0.420168
0	C	0.451387	0.362034	0.422544
0	C	0.659132	0.102294	0.41987
0	C	0.581036	0.899981	0.752511
0	C	0.115737	0.694983	0.752803
0	C	0.323833	0.43448	0.754688
0	C	0.204617	0.152096	0.111734
0	C	0.866135	0.0624488	0.109742
0	C	0.951936	0.810054	0.111645
0	C	0.872376	0.485305	0.442633
0	C	0.533135	0.398008	0.44494
0	C	0.623326	0.148252	0.443344
0	C	0.536184	0.818854	0.775936
0	C	0.197109	0.730756	0.776215
0	C	0.286851	0.479456	0.777822
0	C	0.315385	0.240324	0.0419013
0	C	0.776153	0.0837424	0.0399181
0	C	0.932034	0.700661	0.0407194
0	C	0.983847	0.574758	0.374106
0	C	0.442365	0.418578	0.375626
0	C	0.601636	0.0374676	0.373495
0	C	0.645624	0.907598	0.705043
0	C	0.10745	0.752259	0.706254
0	C	0.267199	0.369339	0.7081
0	C	0.308283	0.152431	0.0401756
0	C	0.864013	0.1635	0.0363942
0	C	0.850556	0.707059	0.039352
0	C	0.977347	0.48712	0.371735
0	C	0.529793	0.498951	0.372294
0	C	0.521424	0.0459839	0.370775
0	C	0.638859	0.819929	0.702298
0	C	0.194803	0.832755	0.704311
0	C	0.185907	0.375994	0.705494
0	C	0.0842179	0.242724	0.27052
0	C	0.772042	0.853458	0.274387
0	C	0.158415	0.92847	0.271763
0	C	0.754466	0.575338	0.605016
0	C	0.440413	0.186239	0.606966
0	C	0.833773	0.264039	0.603853
0	C	0.419241	0.911848	0.937576
0	C	0.108251	0.524169	0.937586
0	C	0.49345	0.596764	0.939659
0	C	0.032521	0.148447	0.262342
0	C	0.866791	0.89484	0.268384
0	C	0.111887	0.977223	0.263297
0	C	0.705299	0.480795	0.597828
0	C	0.534966	0.227007	0.599743
0	C	0.790336	0.315868	0.596885
0	C	0.368852	0.81739	0.930072
0	C	0.203035	0.569331	0.929865
0	C	0.448759	0.647228	0.93089
0	C	0.0294393	0.280986	0.253487
0	C	0.734754	0.76138	0.256498
0	C	0.250515	0.985891	0.255527
0	C	0.697143	0.610771	0.588366
0	C	0.401528	0.093992	0.58921
0	C	0.92607	0.318697	0.586577
0	C	0.363076	0.948671	0.921041
0	C	0.0737467	0.432114	0.921454
0	C	0.585904	0.652797	0.923893
0	C	0.114445	0.262402	0.348619
0	C	0.749531	0.863209	0.35176
0	C	0.148554	0.897735	0.349617
0	C	0.785813	0.597246	0.682635
0	C	0.419362	0.195963	0.684865
0	C	0.824242	0.232952	0.681584
0	C	0.450736	0.932956	0.0152219
0	C	0.0865572	0.533938	0.0152671
0	C	0.48276	0.565909	0.0175299
0	C	0.376127	0.375956	0.176988
0	C	0.641676	0.0140139	0.174232
0	C	0.00656522	0.639093	0.173969
0	C	0.0447103	0.711816	0.506534
0	C	0.307637	0.346196	0.510406
0	C	0.675922	0.974682	0.506106
0	C	0.70889	0.0435598	0.838437
0	C	0.970002	0.677487	0.838422
0	C	0.342354	0.30734	0.841028
0	C	0.251545	0.364187	0.0488837
0	C	0.654315	0.897915	0.0496801
0	C	0.119371	0.765718	0.0475961
0	C	0.916434	0.695921	0.380453
0	C	0.321418	0.232399	0.384639
0	C	0.788882	0.101378	0.379609
0	C	0.579834	0.0293584	0.712569
0	C	0.987123	0.565143	0.712608
0	C	0.45454	0.435039	0.715308
0	C	0.19752	0.320568	0.984011
0	C	0.699092	0.886644	0.985772
0	C	0.127918	0.819923	0.983227
0	C	0.861401	0.650444	0.316649
0	C	0.365526	0.220522	0.320576
0	C	0.798475	0.156577	0.31575
0	C	0.524015	0.983616	0.649214
0	C	0.0335887	0.556272	0.648869
0	C	0.46455	0.490634	0.651639
0	C	0.236709	0.433754	0.0737675
0	C	0.58487	0.814734	0.0751521
0	C	0.204025	0.780995	0.0720184
0	C	0.900774	0.764951	0.405172
0	C	0.252194	0.149374	0.410655
0	C	0.873017	0.115326	0.404192
0	C	0.565014	0.0988522	0.737425
0	C	0.918955	0.480769	0.737082
0	C	0.538646	0.44929	0.740309
0	C	0.388186	0.15791	0.071148
0	C	0.85976	0.23866	0.0670047
0	C	0.777405	0.626822	0.0696926
0	C	0.0563306	0.491557	0.403886
0	C	0.524077	0.573184	0.403257
0	C	0.446554	0.967135	0.401052
0	C	0.719133	0.825501	0.73249
0	C	0.188789	0.906726	0.735486
0	C	0.112517	0.29604	0.736068
0	C	0.405568	0.19297	0.147092
0	C	0.824198	0.222033	0.142785
0	C	0.795201	0.608708	0.145421
0	C	0.0741169	0.529042	0.478896
0	C	0.489031	0.555591	0.479202
0	C	0.463928	0.947294	0.476296
0	C	0.737794	0.861842	0.807972
0	C	0.150196	0.88746	0.810115
0	C	0.130599	0.278258	0.811809
0	C	0.385436	0.0749794	0.0698198
0	C	0.943805	0.316707	0.065735
0	C	0.696792	0.629278	0.0686085
0	C	0.0508656	0.407345	0.405708
0	C	0.607076	0.652393	0.402117
0	C	0.36805	0.973581	0.400926
0	C	0.715683	0.742242	0.731916
0	C	0.272475	0.985051	0.737394
0	C	0.0321523	0.298899	0.734961
0	C	0.290956	0.11734	0.963485
0	C	0.898145	0.179991	0.959316
0	C	0.832192	0.725276	0.963054
0	C	0.96203	0.453098	0.294703
0	C	0.563559	0.516108	0.295151
0	C	0.504568	0.0642146	0.293983
0	C	0.620676	0.785034	0.625563
0	C	0.230094	0.850951	0.627672
0	C	0.167847	0.393306	0.628822
0	C	0.221491	0.117415	0.930173
0	C	0.897886	0.110393	0.926325
0	C	0.900601	0.794828	0.929893
0	C	0.891847	0.451126	0.260937
0	C	0.565053	0.447496	0.261967
0	C	0.573686	0.13348	0.261313
0	C	0.550979	0.785495	0.593109
0	C	0.231662	0.782542	0.594144
0	C	0.235985	0.463075	0.595625
0	C	0.163313	0.116649	0.901748
0	C	0.898597	0.0528886	0.898202
0	C	0.956886	0.853219	0.901537
0	C	0.83303	0.448721	0.232173
0	C	0.567095	0.390808	0.233554
0	C	0.630698	0.191526	0.233118
0	C	0.492514	0.785103	0.565579
0	C	0.233554	0.725843	0.565562
0	C	0.292203	0.521437	0.567089
0	H	0.266065	0.340966	0.288428
0	H	0.674945	0.940502	0.28872
0	H	0.0786842	0.746477	0.287338
0	H	0.936776	0.675304	0.620287
0	H	0.342917	0.272407	0.623701
0	H	0.750176	0.0818045	0.619305
0	H	0.602008	0.0117586	0.952052
0	H	0.00555261	0.605002	0.952383
0	H	0.413039	0.414337	0.954898
0	H	0.209315	0.0416036	0.093746
0	H	0.975831	0.176864	0.0902053
0	H	0.835927	0.804066	0.0946407
0	H	0.878442	0.375625	0.424301
0	H	0.642332	0.512411	0.42523
0	H	0.508074	0.143955	0.425528
0	H	0.541966	0.709035	0.757204
0	H	0.306417	0.845669	0.758275
0	H	0.17135	0.47407	0.758833
0	H	0.150556	0.127286	0.14628
0	H	0.891896	0.0342564	0.144763
0	H	0.979789	0.863545	0.146732
0	H	0.817901	0.459704	0.476699
0	H	0.559348	0.370047	0.479783
0	H	0.651767	0.201808	0.478367
0	H	0.482842	0.793635	0.811392
0	H	0.222975	0.702378	0.810943
0	H	0.31453	0.533187	0.812672
0	H	0.0100887	0.13179	0.207511
0	H	0.884951	0.889138	0.21399
0	H	0.117454	0.999977	0.208534
0	H	0.682293	0.462917	0.543252
0	H	0.552308	0.221909	0.544901
0	H	0.795356	0.338657	0.542217
0	H	0.346512	0.800037	0.875255
0	H	0.220707	0.564401	0.875086
0	H	0.454838	0.669941	0.876063
0	H	0.0688487	0.118835	0.275018
0	H	0.896145	0.960158	0.28129
0	H	0.0463704	0.938592	0.274981
0	H	0.743816	0.453461	0.6102
0	H	0.564944	0.292196	0.613321
0	H	0.72492	0.279471	0.609831
0	H	0.406366	0.789097	0.942922
0	H	0.229747	0.634578	0.942362
0	H	0.383108	0.609949	0.942506
0	H	0.978956	0.122788	0.298309
0	H	0.891406	0.866281	0.305115
0	H	0.136226	0.0298977	0.29958
0	H	0.652385	0.453952	0.634285
0	H	0.559785	0.197706	0.635418
0	H	0.817689	0.368962	0.633098
0	H	0.315379	0.791016	0.966017
0	H	0.23082	0.543594	0.965926
0	H	0.474227	0.700199	0.967068
0	H	0.971101	0.249977	0.282546
0	H	0.765547	0.733718	0.285994
0	H	0.274714	0.0437375	0.284839
0	H	0.639535	0.57884	0.618371
0	H	0.431048	0.0654288	0.619266
0	H	0.952556	0.376657	0.616023
0	H	0.305616	0.917946	0.951422
0	H	0.105522	0.40661	0.952524
0	H	0.61163	0.709399	0.955299
0	H	0.060457	0.34619	0.267935
0	H	0.669014	0.727232	0.269633
0	H	0.287289	0.957065	0.270257
0	H	0.726685	0.676163	0.602209
0	H	0.335725	0.0612496	0.602107
0	H	0.960924	0.287655	0.600657
0	H	0.393917	0.0142392	0.934308
0	H	0.00798787	0.396719	0.934333
0	H	0.620973	0.621596	0.936492
0	H	0.0154234	0.276436	0.196125
0	H	0.741024	0.752877	0.199245
0	H	0.259966	0.000339222	0.198256
0	H	0.68193	0.605023	0.531263
0	H	0.407742	0.0849151	0.53208
0	H	0.93537	0.333205	0.529299
0	H	0.347294	0.942564	0.864016
0	H	0.0807846	0.422503	0.864639
0	H	0.595688	0.669719	0.867149
0	H	0.152082	0.328478	0.35754
0	H	0.682982	0.835833	0.358647
0	H	0.179712	0.862045	0.358485
0	H	0.823013	0.66364	0.690038
0	H	0.353038	0.16966	0.692451
0	H	0.851528	0.193501	0.689063
0	H	0.489172	0.999178	0.0228098
0	H	0.0199875	0.504635	0.0230672
0	H	0.512163	0.528562	0.026247
0	H	0.151268	0.233814	0.363398
0	H	0.777905	0.928003	0.366934
0	H	0.0836338	0.858954	0.36379
0	H	0.823434	0.56964	0.697793
0	H	0.449115	0.260596	0.700674
0	H	0.7594	0.197888	0.697159
0	H	0.487289	0.904091	0.0300731
0	H	0.113341	0.59869	0.0300623
0	H	0.417664	0.528804	0.031732
0	H	0.0625391	0.239332	0.38582
0	H	0.770984	0.833514	0.389859
0	H	0.17459	0.949228	0.387202
0	H	0.73444	0.574781	0.720347
0	H	0.440281	0.164873	0.72197
0	H	0.854484	0.284305	0.718995
0	H	0.399398	0.911206	0.0529256
0	H	0.110232	0.50583	0.0529108
0	H	0.510325	0.617454	0.054998
0	H	0.392136	0.32659	0.169126
0	H	0.691595	0.0783558	0.166144
0	H	0.941635	0.624432	0.166337
0	H	0.0617646	0.663124	0.499174
0	H	0.356484	0.411012	0.502067
0	H	0.611088	0.960206	0.498208
0	H	0.723978	0.993683	0.829554
0	H	0.0186933	0.742151	0.829104
0	H	0.277265	0.291543	0.832324
0	H	0.406246	0.421678	0.134128
0	H	0.59706	0.998584	0.130223
0	H	0.02183	0.609389	0.13017
0	H	0.0729168	0.756305	0.462464
0	H	0.262041	0.329936	0.467112
0	H	0.691511	0.945042	0.462438
0	H	0.738194	0.0890503	0.79528
0	H	0.923884	0.660439	0.795474
0	H	0.359529	0.278771	0.797619
0	H	0.401729	0.405904	0.229131
0	H	0.610489	0.0108559	0.225492
0	H	0.0105935	0.61206	0.225476
0	H	0.0713441	0.743529	0.557831
0	H	0.277106	0.342508	0.562163
0	H	0.679724	0.947679	0.557786
0	H	0.735956	0.0731823	0.890336
0	H	0.940178	0.674768	0.890328
0	H	0.346101	0.280357	0.892691
0	H	0.31769	0.390812	0.0327075
0	H	0.627123	0.936809	0.0322206
0	H	0.0813664	0.699804	0.0310069
0	H	0.982316	0.72317	0.363254
0	H	0.294204	0.271272	0.367228
0	H	0.750271	0.035761	0.362448
0	H	0.645464	0.0562069	0.694853
0	H	0.958643	0.602968	0.695393
0	H	0.416317	0.369486	0.697769
0	H	0.2108	0.273801	0.962591
0	H	0.744848	0.945884	0.963337
0	H	0.0676166	0.80585	0.961983
0	H	0.874949	0.603662	0.295757
0	H	0.412655	0.279498	0.298774
0	H	0.738516	0.144238	0.294992
0	H	0.537812	0.93717	0.627811
0	H	0.0792741	0.616305	0.627738
0	H	0.404748	0.478401	0.630569
0	H	0.206807	0.364083	0.941114
0	H	0.655999	0.851244	0.943153
0	H	0.162671	0.81168	0.939966
0	H	0.869374	0.692708	0.273038
0	H	0.322186	0.186449	0.277669
0	H	0.832279	0.147689	0.272017
0	H	0.531182	0.0257133	0.605615
0	H	0.991622	0.521621	0.605266
0	H	0.498688	0.48198	0.608043
0	H	0.131918	0.288479	0.998583
0	H	0.732679	0.854698	0.00168288
0	H	0.159516	0.885179	0.998263
0	H	0.796122	0.618065	0.332167
0	H	0.397452	0.186792	0.336121
0	H	0.831521	0.221735	0.331135
0	H	0.458886	0.950868	0.665286
0	H	0.0675541	0.524582	0.664505
0	H	0.49749	0.555723	0.667313
0	H	0.277383	0.468477	0.118119
0	H	0.549919	0.821539	0.119141
0	H	0.199034	0.739282	0.115274
0	H	0.943316	0.801824	0.447701
0	H	0.217528	0.156266	0.454826
0	H	0.867217	0.0725722	0.446756
0	H	0.608145	0.135752	0.779607
0	H	0.882017	0.485789	0.78025
0	H	0.532856	0.407523	0.783769
0	H	0.247402	0.47719	0.0300501
0	H	0.541371	0.782033	0.0315622
0	H	0.237661	0.772207	0.027619
0	H	0.908047	0.806642	0.360689
0	H	0.208493	0.116509	0.367388
0	H	0.906928	0.107109	0.359634
0	H	0.572389	0.140528	0.692839
0	H	0.876946	0.447015	0.692775
0	H	0.572195	0.439812	0.696311
0	H	0.173205	0.41039	0.0919286
0	H	0.608462	0.77482	0.0940388
0	H	0.242413	0.843843	0.0915912
0	H	0.838135	0.740939	0.425819
0	H	0.275991	0.109622	0.429497
0	H	0.911741	0.177665	0.424773
0	H	0.502659	0.0754966	0.758495
0	H	0.944012	0.442416	0.756832
0	H	0.577559	0.512081	0.759849
0	H	0.439625	0.201881	0.0356888
0	H	0.816452	0.247637	0.0313757
0	H	0.771141	0.575968	0.0338231
0	H	0.10843	0.533243	0.367888
0	H	0.479985	0.581187	0.367875
0	H	0.437555	0.915613	0.364712
0	H	0.770125	0.868671	0.696262
0	H	0.14687	0.916554	0.69879
0	H	0.105804	0.244916	0.7003
0	H	0.464693	0.20161	0.166597
0	H	0.816759	0.273259	0.16222
0	H	0.745988	0.549152	0.164256
0	H	0.131897	0.535706	0.499902
0	H	0.480857	0.606087	0.499312
0	H	0.412554	0.889463	0.495804
0	H	0.797244	0.870926	0.826911
0	H	0.141787	0.937857	0.830108
0	H	0.0810178	0.2193	0.831253
0	H	0.408185	0.25306	0.150301
0	H	0.763208	0.166267	0.145694
0	H	0.853271	0.606824	0.148591
0	H	0.0794785	0.590392	0.479941
0	H	0.428582	0.499253	0.482192
0	H	0.51954	0.940892	0.478277
0	H	0.740522	0.922014	0.810596
0	H	0.0892833	0.83151	0.81084
0	H	0.188137	0.275371	0.814675
0	H	0.358346	0.151937	0.185092
0	H	0.864271	0.21408	0.181129
0	H	0.799788	0.654974	0.184038
0	H	0.025528	0.490594	0.517066
0	H	0.529974	0.548111	0.516855
0	H	0.472807	0.994967	0.515196
0	H	0.69124	0.821613	0.846769
0	H	0.188924	0.878351	0.849102
0	H	0.136296	0.325262	0.850058
0	H	0.329355	0.0260434	0.0945187
0	H	0.992445	0.307536	0.0895537
0	H	0.702991	0.685167	0.0933907
0	H	0.995644	0.361259	0.433841
0	H	0.656333	0.644795	0.426581
0	H	0.376719	0.0299028	0.426917
0	H	0.659491	0.693842	0.756946
0	H	0.319341	0.976313	0.765332
0	H	0.038298	0.354574	0.760194
0	H	0.388897	0.0553487	0.014991
0	H	0.963315	0.340054	0.0110338
0	H	0.673348	0.625696	0.0139213
0	H	0.0500893	0.383515	0.351758
0	H	0.626776	0.67579	0.34746
0	H	0.345166	0.972394	0.34644
0	H	0.718828	0.721843	0.677329
0	H	0.296061	0.00825778	0.683462
0	H	0.00917646	0.296002	0.68018
0	H	0.437628	0.0777675	0.0991261
0	H	0.94256	0.36632	0.0959071
0	H	0.648384	0.577204	0.098081
0	H	0.104008	0.410343	0.433507
0	H	0.604074	0.701373	0.431835
0	H	0.318125	0.921968	0.429626
0	H	0.767721	0.744853	0.761339
0	H	0.268534	0.0344868	0.765406
0	H	0.983374	0.246538	0.763865
0	H	0.347391	0.153484	0.93042
0	H	0.861666	0.200436	0.926366
0	H	0.812244	0.66929	0.929445
0	H	0.0186258	0.491023	0.262322
0	H	0.525632	0.53508	0.262525
0	H	0.485015	0.00818929	0.260583
0	H	0.676787	0.820963	0.592078
0	H	0.193184	0.870856	0.594682
0	H	0.14887	0.337236	0.595574
0	H	0.28068	0.0531992	0.964299
0	H	0.962462	0.233003	0.959483
0	H	0.778179	0.7358	0.964632
0	H	0.953846	0.389717	0.295094
0	H	0.627172	0.570237	0.295098
0	H	0.450753	0.0750691	0.294537
0	H	0.610205	0.720827	0.626069
0	H	0.293874	0.9048	0.62877
0	H	0.113242	0.402907	0.629663
0	H	0.113025	0.115882	0.87793
0	H	0.899312	0.00337931	0.874639
0	H	0.0054386	0.903675	0.877854
0	H	0.782302	0.446634	0.208087
0	H	0.569038	0.342048	0.20974
0	H	0.679732	0.241602	0.209621
0	H	0.442082	0.784716	0.542464
0	H	0.235289	0.677046	0.541648
0	H	0.340578	0.571778	0.543149
