#******************************************
#
# CIF file created by Zeo++
# Zeo++ is an open source package to
# analyze microporous materials
#
#*******************************************

_cell_length_a		17.8648(0)
_cell_length_b		17.6365(0)
_cell_length_c		9.93108(0)
_cell_angle_alpha		90(0)
_cell_angle_beta		90(0)
_cell_angle_gamma		90(0)

_symmetry_space_group_name_H-M		'P1'
_symmetry_Int_Tables_number		1
_symmetry_cell_setting		Monoclinic

loop_
_symmetry_equiv_pos_as_xyz
'+x,+y,+z'

loop_
_atom_site_label
_atom_site_type_symbol
_atom_site_fract_x
_atom_site_fract_y
_atom_site_fract_z
0	O	0.875239	0.7351	0.969033
0	O	0.670174	0.826772	0.961891
0	O	0.816314	0.880499	0.961896
0	O	0.730107	0.680112	0.970948
0	O	0.163484	0.317067	0.970341
0	O	0.368374	0.225289	0.977597
0	O	0.22226	0.171756	0.977824
0	O	0.308548	0.371924	0.968325
0	H	0.828707	0.703491	0.953457
0	H	0.716883	0.857922	0.945246
0	H	0.846906	0.833012	0.946482
0	H	0.699822	0.727234	0.951059
0	H	0.209992	0.348722	0.985979
0	H	0.321649	0.194186	0.994361
0	H	0.191629	0.219227	0.993251
0	H	0.338809	0.324802	0.988316
0	C	0.0464322	0.74408	0.803238
0	C	0.498311	0.820568	0.795738
0	C	0.809926	0.054144	0.797595
0	C	0.737539	0.508048	0.800285
0	C	0.992159	0.308011	0.135835
0	C	0.540333	0.231513	0.143375
0	C	0.228752	0.997949	0.141572
0	C	0.301128	0.544071	0.138776
0	C	0.0986974	0.740527	0.678854
0	C	0.445916	0.82555	0.671603
0	C	0.813602	0.107336	0.673542
0	C	0.732964	0.456119	0.674686
0	C	0.939793	0.311608	0.260077
0	C	0.592825	0.226574	0.267393
0	C	0.225126	0.9446	0.26542
0	C	0.305747	0.596069	0.264288
0	C	0.103365	0.65824	0.62427
0	C	0.444351	0.907367	0.614069
0	C	0.894013	0.109774	0.614584
0	C	0.651154	0.451578	0.622841
0	C	0.935165	0.393894	0.314681
0	C	0.594375	0.144788	0.325068
0	C	0.144759	0.942157	0.324572
0	C	0.387568	0.600565	0.31611
0	C	0.0261132	0.623841	0.597046
0	C	0.522814	0.939005	0.587834
0	C	0.92641	0.0307789	0.588188
0	C	0.616626	0.52993	0.599069
0	C	0.0124383	0.428195	0.342144
0	C	0.51591	0.113239	0.351601
0	C	0.112406	0.0211355	0.3513
0	C	0.421973	0.522178	0.340125
0	C	0.979222	0.622531	0.725997
0	C	0.56787	0.940858	0.718861
0	C	0.928676	0.984815	0.718836
0	C	0.616513	0.576276	0.729348
0	C	0.0593877	0.429525	0.21326
0	C	0.470749	0.111324	0.220703
0	C	0.110058	0.0672065	0.220772
0	C	0.422081	0.475747	0.209949
0	C	0.968365	0.702558	0.786799
0	C	0.577187	0.860655	0.77984
0	C	0.849769	0.974527	0.780348
0	C	0.696207	0.587131	0.78727
0	C	0.0702338	0.349509	0.152427
0	C	0.461447	0.191479	0.159537
0	C	0.188933	0.0775539	0.159153
0	C	0.342401	0.464963	0.151945
0	C	0.941899	0.693733	0.937926
0	C	0.603775	0.868729	0.931074
0	C	0.858487	0.94726	0.931223
0	C	0.689	0.612793	0.939319
0	C	0.0967705	0.358363	0.00134295
0	C	0.434758	0.183304	0.00838522
0	C	0.180126	0.104964	0.00836993
0	C	0.34965	0.43925	0.999935
0	C	0.00768334	0.728421	0.0223523
0	C	0.537694	0.834263	0.0149751
0	C	0.825535	0.0142712	0.0163499
0	C	0.72397	0.545425	0.020871
0	C	0.0310747	0.32362	0.916803
0	C	0.500788	0.217693	0.924249
0	C	0.213029	0.0380445	0.922977
0	C	0.314671	0.506558	0.918257
0	C	0.00554077	0.815798	0.00247148
0	C	0.538737	0.74698	0.993187
0	C	0.739191	0.0130112	0.997143
0	C	0.810061	0.547644	0.998673
0	C	0.0332244	0.23625	0.936791
0	C	0.499782	0.304991	0.945881
0	C	0.299383	0.0392691	0.942035
0	C	0.228582	0.504353	0.940513
0	C	0.0325363	0.826432	0.855734
0	C	0.510713	0.737664	0.846836
0	C	0.728604	0.0411651	0.850921
0	C	0.819271	0.521696	0.850874
0	C	0.00605513	0.225641	0.0834253
0	C	0.527927	0.314392	0.0921427
0	C	0.310047	0.0109541	0.0881372
0	C	0.219385	0.530434	0.0882407
0	C	0.076217	0.70534	0.934516
0	C	0.469391	0.858971	0.927879
0	C	0.848927	0.0835323	0.928679
0	C	0.700476	0.476734	0.931794
0	C	0.962471	0.346716	0.0044473
0	C	0.569141	0.193015	0.0112398
0	C	0.189672	0.968703	0.0104581
0	C	0.338192	0.575294	0.00719068
0	C	0.178634	0.765775	0.71765
0	C	0.365039	0.804292	0.711694
0	C	0.792148	0.188978	0.714578
0	C	0.758503	0.374994	0.711038
0	C	0.859867	0.286452	0.221057
0	C	0.673678	0.247746	0.22701
0	C	0.246457	0.862995	0.22396
0	C	0.280261	0.677181	0.227774
0	C	0.070566	0.79358	0.56624
0	C	0.471546	0.77015	0.560538
0	C	0.758556	0.081255	0.56316
0	C	0.784123	0.485421	0.560907
0	C	0.967778	0.258508	0.372743
0	C	0.567314	0.282071	0.378398
0	C	0.280294	0.970471	0.375775
0	C	0.25456	0.566862	0.3781
0	C	0.911225	0.746162	0.703518
0	C	0.633431	0.816044	0.69627
0	C	0.80573	0.917674	0.696453
0	C	0.738237	0.645489	0.703432
0	C	0.127304	0.305819	0.235744
0	C	0.405259	0.236184	0.243089
0	C	0.233038	0.134312	0.243179
0	C	0.300272	0.406663	0.235756
0	C	0.00867801	0.702493	0.167523
0	C	0.536828	0.858833	0.160902
0	C	0.85149	0.015063	0.161304
0	C	0.699805	0.542876	0.166758
0	C	0.0301728	0.349464	0.771581
0	C	0.501505	0.193039	0.778368
0	C	0.187016	0.0373957	0.778054
0	C	0.33879	0.508973	0.772335
0	H	0.137351	0.657267	0.531163
0	H	0.411257	0.90818	0.519915
0	H	0.893874	0.143084	0.52013
0	H	0.649372	0.418021	0.528805
0	H	0.901079	0.394902	0.407664
0	H	0.627572	0.143992	0.419107
0	H	0.144943	0.908729	0.418892
0	H	0.389408	0.634231	0.410023
0	H	0.133888	0.622397	0.697495
0	H	0.41427	0.945018	0.685029
0	H	0.931136	0.140902	0.684715
0	H	0.616704	0.419871	0.696493
0	H	0.904758	0.429771	0.241353
0	H	0.624336	0.107069	0.254057
0	H	0.107572	0.911128	0.254422
0	H	0.422043	0.632138	0.242313
0	H	0.0323844	0.565528	0.557274
0	H	0.518943	0.996738	0.543604
0	H	0.983515	0.035693	0.545238
0	H	0.55869	0.523699	0.56111
0	H	0.00620741	0.486484	0.382038
0	H	0.519773	0.0555275	0.39593
0	H	0.0553272	0.0161958	0.394354
0	H	0.479896	0.528352	0.378182
0	H	0.996886	0.656114	0.517152
0	H	0.552047	0.904208	0.511307
0	H	0.892874	0.000869983	0.510905
0	H	0.647665	0.560411	0.51915
0	H	0.0415837	0.395818	0.422005
0	H	0.48676	0.14811	0.428125
0	H	0.146012	0.0509642	0.428593
0	H	0.390839	0.491794	0.420034
0	H	0.923557	0.596522	0.706487
0	H	0.623935	0.966531	0.701938
0	H	0.954551	0.92836	0.701408
0	H	0.59018	0.63268	0.712467
0	H	0.11505	0.45552	0.232855
0	H	0.414676	0.0857211	0.237829
0	H	0.0841648	0.123631	0.238374
0	H	0.448326	0.419313	0.226981
0	H	0.00670939	0.584892	0.800377
0	H	0.539462	0.978642	0.791862
0	H	0.965944	0.0137804	0.791692
0	H	0.580522	0.547496	0.804491
0	H	0.0319383	0.467175	0.138858
0	H	0.499049	0.0734501	0.14772
0	H	0.0727683	0.038289	0.147905
0	H	0.45814	0.504424	0.13478
0	H	0.931673	0.633672	0.965201
0	H	0.614392	0.928635	0.959043
0	H	0.917617	0.935684	0.958081
0	H	0.629993	0.62318	0.968758
0	H	0.106955	0.418437	0.974092
0	H	0.424096	0.123386	0.980578
0	H	0.120974	0.116545	0.981661
0	H	0.408659	0.428848	0.970529
0	H	0.0418972	0.845089	0.0749812
0	H	0.502532	0.717562	0.0657459
0	H	0.71069	0.0496346	0.0704126
0	H	0.839481	0.509947	0.0691134
0	H	0.996973	0.206928	0.864168
0	H	0.535912	0.334368	0.873148
0	H	0.327825	0.00271616	0.86858
0	H	0.199139	0.541956	0.869961
0	H	0.948165	0.837673	0.0183699
0	H	0.595953	0.724364	0.00744782
0	H	0.717241	0.954932	0.0123394
0	H	0.831862	0.605563	0.0159852
0	H	0.0906229	0.214387	0.921129
0	H	0.442548	0.327592	0.931749
0	H	0.321341	0.0973616	0.926981
0	H	0.206798	0.44641	0.923387
0	H	0.991104	0.857021	0.793461
0	H	0.551172	0.706302	0.783617
0	H	0.697402	8.01469e-05	0.788496
0	H	0.848982	0.564173	0.788939
0	H	0.0473759	0.195003	0.145852
0	H	0.487517	0.3458	0.155389
0	H	0.341312	0.0519446	0.150652
0	H	0.189647	0.488016	0.150257
0	H	0.0846432	0.859839	0.851876
0	H	0.457872	0.705493	0.843428
0	H	0.696526	0.0945277	0.848281
0	H	0.852157	0.46892	0.844483
0	H	0.953912	0.192287	0.0870842
0	H	0.580781	0.346553	0.0953601
0	H	0.342085	0.957562	0.0905194
0	H	0.186517	0.583222	0.0944994
0	H	0.128945	0.729372	0.971337
0	H	0.416379	0.835553	0.964703
0	H	0.825914	0.137121	0.966194
0	H	0.724524	0.423044	0.966557
0	H	0.909775	0.322671	0.967517
0	H	0.622132	0.216392	0.974227
0	H	0.212643	0.915146	0.972727
0	H	0.314139	0.628956	0.972321
0	H	0.0846072	0.644044	0.925447
0	H	0.46191	0.920425	0.919903
0	H	0.909515	0.0913037	0.918971
0	H	0.63991	0.468253	0.924055
0	H	0.95407	0.408014	0.0134519
0	H	0.576601	0.131563	0.019313
0	H	0.129087	0.960938	0.0202386
0	H	0.398761	0.583768	0.014904
0	H	0.17834	0.822018	0.764568
0	H	0.362786	0.748367	0.759515
0	H	0.737403	0.190553	0.764146
0	H	0.814318	0.375157	0.756939
0	H	0.860116	0.230095	0.174577
0	H	0.675914	0.303585	0.178871
0	H	0.301107	0.861449	0.174048
0	H	0.224336	0.677044	0.182312
0	H	0.214987	0.768914	0.629
0	H	0.328296	0.802543	0.623465
0	H	0.789074	0.226308	0.626575
0	H	0.76118	0.338847	0.621445
0	H	0.823348	0.283608	0.309519
0	H	0.710498	0.249623	0.315134
0	H	0.249665	0.825534	0.311776
0	H	0.277855	0.713469	0.317221
0	H	0.204684	0.726547	0.789038
0	H	0.341019	0.845102	0.78265
0	H	0.832882	0.213594	0.784389
0	H	0.720297	0.347881	0.782505
0	H	0.834018	0.325554	0.149215
0	H	0.697619	0.206809	0.156199
0	H	0.205583	0.838497	0.154292
0	H	0.318335	0.704123	0.155867
0	H	0.0117681	0.781548	0.540528
0	H	0.530857	0.779073	0.534995
0	H	0.767512	0.021244	0.537039
0	H	0.771196	0.544765	0.535541
0	H	0.0265333	0.270556	0.398751
0	H	0.507994	0.273261	0.403999
0	H	0.271394	0.0304433	0.402242
0	H	0.267415	0.507508	0.403516
0	H	0.103465	0.786726	0.474077
0	H	0.439009	0.777648	0.468201
0	H	0.765507	0.114286	0.470713
0	H	0.777229	0.451938	0.469005
0	H	0.934725	0.265312	0.464738
0	H	0.599868	0.274567	0.47072
0	H	0.273415	0.937274	0.468049
0	H	0.261496	0.600374	0.469964
0	H	0.0738021	0.853227	0.595853
0	H	0.465345	0.710995	0.591614
0	H	0.700251	0.0872163	0.595084
0	H	0.843258	0.482999	0.588952
0	H	0.964608	0.198873	0.343042
0	H	0.573603	0.341198	0.347204
0	H	0.338561	0.964523	0.343623
0	H	0.195426	0.569346	0.350068
0	H	0.896111	0.800571	0.750911
0	H	0.648369	0.761721	0.744469
0	H	0.753565	0.900197	0.747112
0	H	0.792627	0.660598	0.748813
0	H	0.14249	0.25149	0.188179
0	H	0.390196	0.290399	0.194631
0	H	0.284927	0.152211	0.192067
0	H	0.245833	0.391693	0.190443
0	H	0.858847	0.713821	0.693412
0	H	0.685996	0.847846	0.684567
0	H	0.838226	0.865665	0.67949
0	H	0.706137	0.698537	0.695112
0	H	0.17965	0.338176	0.246203
0	H	0.352742	0.204357	0.255191
0	H	0.200377	0.186093	0.261181
0	H	0.332252	0.353534	0.243989
0	H	0.932625	0.758203	0.601799
0	H	0.611325	0.803474	0.595295
0	H	0.790707	0.941435	0.597532
0	H	0.748969	0.624342	0.60094
0	H	0.105774	0.293629	0.33731
0	H	0.427484	0.248965	0.343904
0	H	0.248537	0.110241	0.341627
0	H	0.289612	0.427814	0.338271
0	H	0.0538832	0.729406	0.224722
0	H	0.489939	0.833516	0.216015
0	H	0.826298	0.0618243	0.218058
0	H	0.727107	0.496568	0.221468
0	H	0.984906	0.322637	0.714431
0	H	0.54815	0.218562	0.722881
0	H	0.211937	0.990497	0.721278
0	H	0.311176	0.554976	0.717326
0	H	0.0160622	0.641014	0.176001
0	H	0.53224	0.920509	0.171211
0	H	0.912382	0.0209064	0.16925
0	H	0.639241	0.535057	0.176925
0	H	0.0229524	0.410957	0.762972
0	H	0.506381	0.13138	0.768154
0	H	0.126092	0.031879	0.770188
0	H	0.399302	0.517159	0.76207
0	H	0.955553	0.716933	0.217297
0	H	0.588788	0.841358	0.211481
0	H	0.835954	0.961915	0.211954
0	H	0.714415	0.596132	0.217946
0	H	0.0832588	0.334848	0.721846
0	H	0.449356	0.210218	0.728088
0	H	0.202804	0.0904563	0.727368
0	H	0.324493	0.455518	0.72152
