#******************************************
#
# CIF file created by Zeo++
# Zeo++ is an open source package to
# analyze microporous materials
#
#*******************************************

_cell_length_a		9.58741(0)
_cell_length_b		13.1437(0)
_cell_length_c		16.5473(0)
_cell_angle_alpha		110.604(0)
_cell_angle_beta		88.8424(0)
_cell_angle_gamma		116.8(0)

_symmetry_space_group_name_H-M		'P1'
_symmetry_Int_Tables_number		1
_symmetry_cell_setting		Triclinic

loop_
_symmetry_equiv_pos_as_xyz
'+x,+y,+z'

loop_
_atom_site_label
_atom_site_type_symbol
_atom_site_fract_x
_atom_site_fract_y
_atom_site_fract_z
0	S	0.910684	0.204722	0.308714
0	O	0.260059	0.590193	0.514478
0	O	0.951445	0.598708	0.455847
0	O	0.0455969	0.345268	0.380808
0	O	0.185067	0.504753	0.712123
0	O	0.087315	0.307919	0.701387
0	O	0.0139314	0.164423	0.256846
0	O	0.798212	0.219843	0.263428
0	O	0.686719	0.450191	0.416605
0	O	0.752061	0.676	0.555756
0	O	0.301384	0.204389	0.403987
0	O	0.349032	0.0469059	0.328161
0	C	0.212685	0.628453	0.452076
0	C	0.038295	0.535322	0.411206
0	C	0.999833	0.428233	0.442118
0	C	0.119252	0.493859	0.528756
0	C	0.172618	0.414342	0.553566
0	C	0.278136	0.484735	0.642905
0	C	0.302774	0.0957914	0.391712
0	C	0.245466	0.0565771	0.464821
0	C	0.257774	0.143236	0.54752
0	C	0.201605	0.103767	0.615273
0	C	0.137468	0.978723	0.601147
0	C	0.126519	0.892672	0.518926
0	C	0.177887	0.930707	0.450035
0	C	0.0937445	0.408366	0.737049
0	C	0.0145917	0.448064	0.810411
0	C	0.908362	0.359044	0.840694
0	C	0.834021	0.393818	0.910728
0	C	0.866308	0.517044	0.950874
0	C	0.971949	0.605746	0.920834
0	C	0.0452092	0.571277	0.850017
0	C	0.827605	0.124596	0.372438
0	C	0.92101	0.101953	0.421124
0	C	0.852603	0.0309435	0.470469
0	C	0.688244	0.979327	0.470931
0	C	0.595401	0.00378001	0.423252
0	C	0.664306	0.0752697	0.374265
0	C	0.612491	0.897555	0.51957
0	C	0.802441	0.56495	0.411412
0	C	0.756022	0.663758	0.464359
0	C	0.602713	0.599291	0.494586
0	C	0.553997	0.461674	0.456685
0	C	0.408505	0.39385	0.385427
0	C	0.361554	0.258394	0.338134
0	S	0.786189	0.720549	0.238213
0	O	0.691872	0.852935	0.0275954
0	O	0.0613114	0.925689	0.0710063
0	O	0.724856	0.750293	0.15756
0	O	0.510466	0.548534	0.834226
0	O	0.415223	0.37324	0.859889
0	O	0.670141	0.720719	0.295374
0	O	0.950465	0.810269	0.273029
0	O	0.178184	0.825074	0.109129
0	O	0.286677	0.887411	0.967354
0	O	0.317094	0.63125	0.152814
0	O	0.210476	0.564803	0.258556
0	C	0.839984	0.959128	0.0786368
0	C	0.930797	0.912753	0.119343
0	C	0.818896	0.772251	0.0914585
0	C	0.705823	0.741213	0.0102558
0	C	0.538732	0.636383	0.994499
0	C	0.444661	0.602474	0.907611
0	C	0.249009	0.541921	0.186288
0	C	0.226746	0.421264	0.123077
0	C	0.222843	0.397768	0.0333432
0	C	0.199257	0.282813	0.974538
0	C	0.178865	0.191217	0.0051523
0	C	0.181818	0.214473	0.094543
0	C	0.205642	0.32931	0.153861
0	C	0.489849	0.431904	0.817039
0	C	0.568747	0.393721	0.743171
0	C	0.652536	0.47086	0.699058
0	C	0.725285	0.430374	0.629931
0	C	0.715216	0.313651	0.605368
0	C	0.632758	0.237045	0.649788
0	C	0.559498	0.276777	0.718764
0	C	0.764128	0.57577	0.186194
0	C	0.885408	0.549555	0.20182
0	C	0.86129	0.42906	0.166459
0	C	0.718273	0.33281	0.11139
0	C	0.598799	0.359856	0.0937909
0	C	0.621438	0.480208	0.131779
0	C	0.697966	0.205444	0.0739527
0	C	0.202887	0.944429	0.113611
0	C	0.327949	0.982668	0.0557021
0	C	0.393873	0.893092	0.0322556
0	C	0.309612	0.803191	0.0774346
0	C	0.42418	0.832782	0.155464
0	C	0.344299	0.756337	0.209238
0	H	0.230228	0.722686	0.488986
0	H	0.292899	0.627099	0.403091
0	H	0.013191	0.505082	0.339185
0	H	0.873833	0.381967	0.449633
0	H	0.0730865	0.542349	0.583118
0	H	0.0681862	0.329513	0.553189
0	H	0.237084	0.38125	0.502192
0	H	0.364303	0.581426	0.653526
0	H	0.338648	0.436435	0.655973
0	H	0.310501	0.240933	0.558399
0	H	0.205984	0.17076	0.67877
0	H	0.0947401	0.947764	0.654233
0	H	0.0767417	0.794972	0.508875
0	H	0.163519	0.863827	0.384201
0	H	0.884997	0.263348	0.809192
0	H	0.751041	0.325302	0.934464
0	H	0.809187	0.543804	0.00635872
0	H	0.000781923	0.703156	0.953382
0	H	0.126499	0.640254	0.825664
0	H	0.049035	0.140105	0.419922
0	H	0.926428	0.0138032	0.507899
0	H	0.468103	0.965333	0.423567
0	H	0.589274	0.0922437	0.336662
0	H	0.564045	0.799885	0.474329
0	H	0.512985	0.907556	0.548538
0	H	0.695438	0.912422	0.572683
0	H	0.803394	0.547203	0.341143
0	H	0.79773	0.748414	0.452703
0	H	0.51195	0.628707	0.509674
0	H	0.53956	0.419757	0.50596
0	H	0.429036	0.437891	0.336991
0	H	0.30652	0.403639	0.41556
0	H	0.462562	0.242641	0.316469
0	H	0.260876	0.210229	0.283571
0	H	0.905545	0.00108013	0.0332737
0	H	0.805296	0.0218656	0.127404
0	H	0.973634	0.963906	0.190855
0	H	0.886188	0.719309	0.0771064
0	H	0.763344	0.72769	0.950794
0	H	0.542626	0.554134	0.996634
0	H	0.47747	0.663185	0.0501955
0	H	0.458214	0.684025	0.895552
0	H	0.318242	0.53632	0.899976
0	H	0.237449	0.469314	0.00981355
0	H	0.19916	0.265682	0.904765
0	H	0.159626	0.101194	0.958929
0	H	0.162456	0.142112	0.118431
0	H	0.205973	0.346862	0.223674
0	H	0.661461	0.562569	0.719313
0	H	0.78997	0.490531	0.595368
0	H	0.771545	0.281538	0.551318
0	H	0.625546	0.146271	0.630448
0	H	0.494759	0.217877	0.754047
0	H	0.999708	0.62403	0.242296
0	H	0.952194	0.407173	0.182099
0	H	0.487273	0.287144	0.0510264
0	H	0.526343	0.499732	0.118588
0	H	0.691229	0.171104	0.12734
0	H	0.800507	0.202267	0.044235
0	H	0.592189	0.139475	0.0238279
0	H	0.232924	0.00600573	0.183844
0	H	0.386272	0.0771659	0.0596985
0	H	0.511624	0.910202	0.0167614
0	H	0.250301	0.704391	0.0329818
0	H	0.526005	0.817135	0.131313
0	H	0.47621	0.932078	0.198986
0	H	0.22774	0.750614	0.221736
0	H	0.420859	0.785599	0.270755
