#******************************************
#
# CIF file created by Zeo++
# Zeo++ is an open source package to
# analyze microporous materials
#
#*******************************************

_cell_length_a		13.8561(0)
_cell_length_b		13.9829(0)
_cell_length_c		13.8951(0)
_cell_angle_alpha		78.4812(0)
_cell_angle_beta		78.7632(0)
_cell_angle_gamma		78.6613(0)

_symmetry_space_group_name_H-M		'P1'
_symmetry_Int_Tables_number		1
_symmetry_cell_setting		Triclinic

loop_
_symmetry_equiv_pos_as_xyz
'+x,+y,+z'

loop_
_atom_site_label
_atom_site_type_symbol
_atom_site_fract_x
_atom_site_fract_y
_atom_site_fract_z
0	Si	0.131616	0.0936735	0.326795
0	Si	0.313121	0.137853	0.103427
0	Si	0.0880928	0.317246	0.14713
0	Si	0.822939	0.87379	0.667119
0	Si	0.641411	0.829551	0.890526
0	Si	0.866478	0.65016	0.846806
0	Si	0.294525	0.0709666	0.264875
0	Si	0.249736	0.29898	0.0807287
0	Si	0.0652998	0.254113	0.309484
0	Si	0.660042	0.896467	0.729086
0	Si	0.704854	0.668425	0.913226
0	Si	0.889267	0.713359	0.684454
0	Si	0.373165	0.151685	0.341363
0	Si	0.32622	0.376102	0.16255
0	Si	0.14735	0.329173	0.388018
0	Si	0.581419	0.815747	0.652579
0	Si	0.628399	0.591321	0.831371
0	Si	0.807248	0.638298	0.605902
0	Si	0.354677	0.910839	0.286532
0	Si	0.270176	0.360865	0.920101
0	Si	0.904508	0.276276	0.371434
0	Si	0.599851	0.0565834	0.707402
0	Si	0.684346	0.606438	0.0738355
0	Si	0.0500493	0.691156	0.622472
0	C	0.0642176	0.0231589	0.262741
0	C	0.251439	0.0705236	0.0307055
0	C	0.0154436	0.25599	0.079181
0	C	0.890426	0.944366	0.731028
0	C	0.702958	0.896936	0.96332
0	C	0.939147	0.7113	0.914853
0	H	0.0972521	0.944506	0.269297
0	H	0.257772	0.104358	0.951775
0	H	0.936306	0.262958	0.112584
0	H	0.856907	0.0228601	0.725171
0	H	0.697432	0.862569	0.0420739
0	H	0.0181133	0.705101	0.880924
0	H	0.0659029	0.0528563	0.18311
0	H	0.17182	0.0704424	0.0598605
0	H	0.044279	0.176856	0.0801157
0	H	0.88957	0.914197	0.810461
0	H	0.782378	0.897831	0.933652
0	H	0.909773	0.790219	0.914756
0	H	0.985523	0.0268009	0.297464
0	H	0.287867	0.99295	0.0338653
0	H	0.0190086	0.291632	0.000794293
0	H	0.968879	0.94137	0.695641
0	H	0.66589	0.974244	0.960881
0	H	0.936292	0.674999	0.992983
0	C	0.109837	0.034074	0.46413
0	C	0.45123	0.11869	0.0454037
0	C	0.0295545	0.454191	0.12672
0	C	0.844578	0.933337	0.529757
0	C	0.503273	0.848589	0.948456
0	C	0.924949	0.513186	0.867078
0	H	0.0305307	0.0463172	0.496885
0	H	0.485245	0.0403292	0.0573751
0	H	0.041063	0.48769	0.0477165
0	H	0.923791	0.920746	0.496757
0	H	0.469046	0.92687	0.93616
0	H	0.913318	0.479541	0.946029
0	H	0.151202	0.0618781	0.509621
0	H	0.495324	0.160087	0.0748521
0	H	0.0592347	0.498233	0.167815
0	H	0.802769	0.90581	0.484422
0	H	0.459335	0.806801	0.919229
0	H	0.895305	0.469237	0.825748
0	H	0.134036	0.953287	0.472301
0	H	0.459933	0.14376	0.964232
0	H	0.948226	0.462861	0.152001
0	H	0.820767	0.014167	0.521615
0	H	0.494568	0.823855	0.0296699
0	H	0.00628679	0.504493	0.841918
0	C	0.513508	0.132059	0.290634
0	C	0.274955	0.515242	0.142431
0	C	0.127718	0.277739	0.527999
0	C	0.441065	0.835333	0.703265
0	C	0.679681	0.452173	0.85138
0	C	0.826838	0.689701	0.465914
0	H	0.543605	0.201628	0.267938
0	H	0.250949	0.54479	0.212297
0	H	0.197796	0.255945	0.558336
0	H	0.411074	0.76576	0.726208
0	H	0.704317	0.422834	0.781417
0	H	0.756775	0.711622	0.435663
0	H	0.532367	0.0941484	0.225821
0	H	0.21074	0.534198	0.102803
0	H	0.0902581	0.212641	0.546594
0	H	0.422112	0.873516	0.767891
0	H	0.74347	0.43308	0.891603
0	H	0.864474	0.754672	0.447234
0	H	0.55498	0.0863757	0.347964
0	H	0.332705	0.556512	0.0977319
0	H	0.0809999	0.334114	0.569241
0	H	0.399578	0.880727	0.64581
0	H	0.621721	0.410821	0.895444
0	H	0.873363	0.633221	0.424657
0	C	0.363441	0.0955213	0.479709
0	C	0.46472	0.366535	0.106168
0	C	0.0908459	0.466597	0.37882
0	C	0.591111	0.87188	0.514219
0	C	0.489895	0.600806	0.887721
0	C	0.863806	0.500874	0.615104
0	H	0.39787	0.0171407	0.490065
0	H	0.474519	0.401527	0.0274724
0	H	0.0118757	0.476402	0.413169
0	H	0.556659	0.950254	0.503859
0	H	0.480102	0.565743	0.966388
0	H	0.942676	0.49111	0.580402
0	H	0.285913	0.0997322	0.517969
0	H	0.503042	0.289542	0.10972
0	H	0.0948602	0.505317	0.30148
0	H	0.668614	0.867675	0.475899
0	H	0.451512	0.677801	0.88425
0	H	0.860148	0.462205	0.692455
0	H	0.402646	0.133315	0.518711
0	H	0.504163	0.404681	0.144504
0	H	0.129028	0.504927	0.418117
0	H	0.551873	0.834067	0.475296
0	H	0.450554	0.562775	0.849386
0	H	0.82539	0.462421	0.576079
0	C	0.314985	0.847684	0.418409
0	C	0.403029	0.326909	0.856106
0	C	0.842338	0.408276	0.333272
0	C	0.639502	0.119681	0.575479
0	C	0.551514	0.640351	0.137801
0	C	0.11219	0.559136	0.660583
0	H	0.23328	0.853554	0.438263
0	H	0.426089	0.246268	0.86101
0	H	0.850637	0.430606	0.251714
0	H	0.721179	0.114135	0.555713
0	H	0.528561	0.720957	0.133327
0	H	0.104376	0.536961	0.742127
0	H	0.340805	0.878791	0.473607
0	H	0.456708	0.354553	0.887933
0	H	0.873031	0.461377	0.362398
0	H	0.613997	0.0882869	0.52029
0	H	0.497797	0.613136	0.105668
0	H	0.0811185	0.505996	0.631912
0	H	0.346631	0.768541	0.426668
0	H	0.409874	0.359532	0.776702
0	H	0.762063	0.416315	0.362501
0	H	0.607513	0.198739	0.567084
0	H	0.544562	0.607329	0.217091
0	H	0.192362	0.55096	0.630859
0	C	0.49596	0.884636	0.261946
0	C	0.239933	0.500877	0.89564
0	C	0.879715	0.250153	0.512462
0	C	0.458574	0.0827394	0.73199
0	C	0.71461	0.466434	0.0981816
0	C	0.0746936	0.717278	0.481442
0	H	0.521885	0.804296	0.271077
0	H	0.247003	0.527832	0.815025
0	H	0.798877	0.25879	0.538882
0	H	0.432586	0.163061	0.72305
0	H	0.707904	0.439375	0.178763
0	H	0.155552	0.708771	0.454861
0	H	0.528049	0.913606	0.314392
0	H	0.29147	0.534412	0.924458
0	H	0.909398	0.301915	0.544517
0	H	0.426515	0.0538846	0.679394
0	H	0.66278	0.43296	0.06963
0	H	0.0451429	0.665344	0.449526
0	H	0.527017	0.916694	0.186163
0	H	0.163604	0.528806	0.929163
0	H	0.912339	0.174675	0.542895
0	H	0.427478	0.0504961	0.80771
0	H	0.790808	0.438459	0.064294
0	H	0.0419408	0.792645	0.450995
0	C	0.310895	0.844716	0.200473
0	C	0.186533	0.31429	0.853083
0	C	0.835392	0.192539	0.3282
0	C	0.643605	0.122797	0.793405
0	C	0.768035	0.652912	0.140995
0	C	0.119225	0.774895	0.665633
0	H	0.341014	0.869168	0.121986
0	H	0.107124	0.3398	0.879059
0	H	0.858675	0.114305	0.358624
0	H	0.61325	0.0985659	0.871867
0	H	0.84741	0.627159	0.115179
0	H	0.0960817	0.853093	0.635026
0	H	0.229247	0.856758	0.207795
0	H	0.198426	0.233128	0.863359
0	H	0.84706	0.200027	0.246802
0	H	0.725238	0.110574	0.78629
0	H	0.756337	0.734055	0.130587
0	H	0.10747	0.767593	0.74703
0	H	0.336471	0.764622	0.218131
0	H	0.201977	0.342044	0.772795
0	H	0.754852	0.211239	0.353903
0	H	0.618217	0.202902	0.775517
0	H	0.752345	0.625247	0.221281
0	H	0.199761	0.756025	0.640042
0	C	0.347585	0.36632	0.542863
0	C	0.527722	0.352196	0.378709
0	C	0.361901	0.530013	0.362979
0	C	0.607207	0.60078	0.451131
0	C	0.426904	0.615453	0.615032
0	C	0.592406	0.437419	0.631264
0	H	0.360505	0.287184	0.57411
0	H	0.558756	0.365216	0.299118
0	H	0.281873	0.560296	0.374829
0	H	0.594654	0.679886	0.419705
0	H	0.395775	0.602782	0.6946
0	H	0.672315	0.406981	0.619568
0	H	0.268291	0.395274	0.564731
0	H	0.550328	0.273522	0.408037
0	H	0.391789	0.55234	0.284023
0	H	0.686476	0.571475	0.429346
0	H	0.404474	0.694067	0.585373
0	H	0.562399	0.415278	0.710233
0	H	0.39052	0.403231	0.578857
0	H	0.563433	0.395028	0.415804
0	H	0.397993	0.566071	0.406524
0	H	0.564111	0.564011	0.415193
0	H	0.391147	0.57245	0.578102
0	H	0.556272	0.401402	0.587785
0	Si	0.309924	0.313075	0.324918
0	Si	0.644682	0.654364	0.669011
0	Si	0.387398	0.3909	0.402947
0	Si	0.567215	0.576504	0.591023
