#******************************************
#
# CIF file created by Zeo++
# Zeo++ is an open source package to
# analyze microporous materials
#
#*******************************************

_cell_length_a		9.81227(0)
_cell_length_b		15.3539(0)
_cell_length_c		23.56(0)
_cell_angle_alpha		90(0)
_cell_angle_beta		90(0)
_cell_angle_gamma		90(0)

_symmetry_space_group_name_H-M		'P1'
_symmetry_Int_Tables_number		1
_symmetry_cell_setting		Monoclinic

loop_
_symmetry_equiv_pos_as_xyz
'+x,+y,+z'

loop_
_atom_site_label
_atom_site_type_symbol
_atom_site_fract_x
_atom_site_fract_y
_atom_site_fract_z
0	O	0.627948	0.341326	0.184023
0	O	0.864604	0.687662	0.686359
0	O	0.366628	0.849387	0.337116
0	O	0.132354	0.182451	0.839313
0	C	0.586028	0.343796	0.12503
0	C	0.907284	0.685796	0.62741
0	C	0.406086	0.853008	0.396442
0	C	0.0907874	0.179428	0.89837
0	O	0.578162	0.252874	0.107949
0	O	0.91446	0.7768	0.610557
0	O	0.413992	0.76236	0.414138
0	O	0.0827452	0.270213	0.91578
0	C	0.6357	0.196706	0.151048
0	C	0.854627	0.832292	0.653508
0	C	0.356666	0.705624	0.371264
0	C	0.139341	0.326824	0.872719
0	H	0.547699	0.160015	0.169362
0	H	0.941591	0.869683	0.672138
0	H	0.444812	0.668694	0.353276
0	H	0.0508379	0.363269	0.854645
0	C	0.699583	0.260287	0.194526
0	C	0.791493	0.768111	0.696849
0	C	0.293575	0.768658	0.327197
0	C	0.203366	0.26379	0.828924
0	H	0.809698	0.272628	0.18598
0	H	0.681653	0.754956	0.688189
0	H	0.183651	0.781834	0.335682
0	H	0.313663	0.251745	0.837282
0	C	0.7316	0.129963	0.120501
0	C	0.758061	0.898595	0.622924
0	C	0.260574	0.639166	0.401949
0	C	0.234941	0.393772	0.903254
0	O	0.740489	0.0648977	0.165204
0	O	0.752086	0.964557	0.667195
0	O	0.254834	0.572819	0.357882
0	O	0.243707	0.458775	0.858506
0	C	0.813393	0.984705	0.153765
0	C	0.680025	0.0450878	0.655816
0	C	0.185138	0.491567	0.369848
0	C	0.313881	0.539907	0.870191
0	H	0.923097	0.996443	0.162546
0	H	0.569874	0.033666	0.663343
0	H	0.0746089	0.501682	0.362956
0	H	0.424066	0.529488	0.86182
0	H	0.799204	0.963573	0.109474
0	H	0.697188	0.0671024	0.611905
0	H	0.204253	0.470033	0.413739
0	H	0.298067	0.560962	0.914402
0	C	0.752333	0.919914	0.195954
0	C	0.739822	0.108532	0.699166
0	C	0.245408	0.42828	0.326481
0	C	0.251806	0.603915	0.827724
0	H	0.7399	0.854413	0.177275
0	H	0.753571	0.174516	0.681431
0	H	0.262593	0.362858	0.344585
0	H	0.23535	0.669065	0.846364
0	H	0.653195	0.943805	0.212167
0	H	0.838022	0.0837181	0.715864
0	H	0.341791	0.454269	0.308762
0	H	0.154811	0.578246	0.810485
0	O	0.851748	0.91007	0.241032
0	O	0.638605	0.116518	0.743729
0	O	0.142401	0.418103	0.282814
0	O	0.353235	0.614937	0.783526
0	C	0.793999	0.909988	0.29762
0	C	0.69574	0.123874	0.800233
0	C	0.1973	0.406826	0.226204
0	C	0.296852	0.624385	0.727039
0	H	0.752232	0.844344	0.305688
0	H	0.728335	0.192156	0.806226
0	H	0.22516	0.337457	0.221466
0	H	0.26743	0.693415	0.721741
0	H	0.712317	0.959815	0.300657
0	H	0.783505	0.0789974	0.804793
0	H	0.288002	0.448812	0.220349
0	H	0.207025	0.581464	0.721886
0	C	0.912477	0.931634	0.337246
0	C	0.580305	0.0990037	0.840582
0	C	0.0826743	0.432957	0.185754
0	C	0.411401	0.598405	0.686511
0	H	0.0121386	0.916804	0.316884
0	H	0.479157	0.113192	0.821419
0	H	0.981059	0.419949	0.204725
0	H	0.512978	0.611435	0.705583
0	H	0.904924	0.897406	0.378557
0	H	0.589288	0.131997	0.882335
0	H	0.0911163	0.399637	0.14411
0	H	0.402871	0.631893	0.644936
0	O	0.906661	0.0214446	0.35445
0	O	0.589949	0.00870271	0.856344
0	O	0.0948778	0.523079	0.169767
0	O	0.399552	0.508342	0.670331
0	C	0.940799	0.0828491	0.310008
0	C	0.552808	0.948699	0.811487
0	C	0.0577916	0.583693	0.214344
0	C	0.436725	0.447376	0.714682
0	H	0.918261	0.055312	0.267267
0	H	0.57777	0.976499	0.768987
0	H	0.0843725	0.556717	0.256901
0	H	0.411105	0.474285	0.757329
0	H	0.0513679	0.0958639	0.313881
0	H	0.441441	0.937996	0.814892
0	H	0.946206	0.593741	0.211358
0	H	0.548112	0.436926	0.711435
0	C	0.851958	0.162893	0.32104
0	C	0.637111	0.866718	0.822361
0	C	0.14065	0.666026	0.202553
0	C	0.35296	0.365326	0.703051
0	H	0.90994	0.220205	0.335615
0	H	0.575596	0.810228	0.835765
0	H	0.0780882	0.721651	0.188449
0	H	0.41446	0.309666	0.688251
0	H	0.767869	0.14892	0.350812
0	H	0.720325	0.878244	0.853003
0	H	0.22409	0.654283	0.172079
0	H	0.268259	0.377579	0.673274
0	O	0.800446	0.181236	0.264608
0	O	0.690514	0.848532	0.7662
0	O	0.193432	0.686283	0.258542
0	O	0.302638	0.344633	0.75935
0	C	0.682524	0.237676	0.258915
0	C	0.807855	0.791398	0.761181
0	C	0.310201	0.74401	0.263124
0	C	0.18565	0.287333	0.764668
0	C	0.691735	0.390334	0.0892839
0	C	0.802363	0.639458	0.59115
0	C	0.298481	0.899472	0.431231
0	C	0.196784	0.132837	0.93393
0	H	0.793916	0.362366	0.0951496
0	H	0.700147	0.667526	0.596713
0	H	0.19681	0.871088	0.424758
0	H	0.299138	0.16033	0.927626
0	H	0.667662	0.385144	0.0438625
0	H	0.82751	0.645081	0.54585
0	H	0.320816	0.89464	0.476823
0	H	0.173539	0.138633	0.979403
0	H	0.698172	0.459538	0.100473
0	H	0.795662	0.570176	0.602046
0	H	0.291903	0.968583	0.419811
0	H	0.202446	0.0634834	0.923056
0	C	0.443553	0.381542	0.122665
0	C	0.0499969	0.648379	0.625401
0	C	0.547986	0.891392	0.39966
0	C	0.948416	0.141513	0.900939
0	H	0.370956	0.338063	0.144001
0	H	0.121984	0.691727	0.647248
0	H	0.621904	0.848424	0.378652
0	H	0.875565	0.18446	0.879296
0	H	0.438886	0.445546	0.143348
0	H	0.0544495	0.584202	0.645818
0	H	0.552667	0.955559	0.37917
0	H	0.943946	0.0771242	0.8808
0	H	0.408865	0.389432	0.0786172
0	H	0.0857747	0.641027	0.581486
0	H	0.58122	0.899171	0.443912
0	H	0.913721	0.1344	0.945045
0	C	0.662573	0.0876918	0.0693225
0	C	0.82537	0.939671	0.57092
0	C	0.327894	0.598746	0.454155
0	C	0.165718	0.435915	0.95446
0	C	0.520312	0.0786769	0.0678971
0	C	0.967762	0.946303	0.567634
0	C	0.470271	0.592104	0.457542
0	C	0.0234535	0.444964	0.955984
0	H	0.458204	0.103641	0.102759
0	H	0.0314943	0.920304	0.601639
0	H	0.534187	0.618426	0.423717
0	H	0.961234	0.420016	0.92117
0	C	0.456138	0.0384895	0.0218426
0	C	0.0300273	0.985229	0.520667
0	C	0.53232	0.55256	0.504346
0	C	0.959498	0.485214	0.00207848
0	H	0.345617	0.0325043	0.0212194
0	H	0.140666	0.98944	0.518647
0	H	0.642944	0.548109	0.506365
0	H	0.84896	0.491197	0.00278749
0	C	0.533579	0.0065476	0.976705
0	C	0.950637	0.0181943	0.476446
0	C	0.452722	0.519123	0.548348
0	C	0.0370926	0.517213	0.0471533
0	H	0.484781	0.97659	0.939915
0	H	0.99808	0.0470075	0.438887
0	H	0.499865	0.48926	0.585615
0	H	0.988443	0.547408	0.0839744
0	C	0.675596	0.0140549	0.978124
0	C	0.808537	0.013416	0.47983
0	C	0.310648	0.524501	0.545069
0	C	0.179108	0.50977	0.0456008
0	H	0.735307	0.989474	0.942474
0	H	0.747058	0.039352	0.445161
0	H	0.249117	0.498273	0.57965
0	H	0.238982	0.534785	0.0810749
0	C	0.739813	0.0535737	0.024308
0	C	0.746246	0.975197	0.526929
0	C	0.24858	0.563342	0.498137
0	C	0.243104	0.470091	0.999415
0	H	0.850774	0.0575853	0.0250809
0	H	0.635261	0.973303	0.529241
0	H	0.137606	0.565682	0.495879
0	H	0.354053	0.46603	0.998576
0	C	0.869874	0.169945	0.1076
0	C	0.618468	0.859545	0.611229
0	C	0.120739	0.677993	0.413395
0	C	0.373267	0.353867	0.916279
0	C	0.891265	0.216652	0.0572035
0	C	0.592798	0.814481	0.560534
0	C	0.0947628	0.724495	0.463501
0	C	0.393522	0.306203	0.966383
0	H	0.807464	0.22549	0.0271615
0	H	0.674595	0.805175	0.529683
0	H	0.176539	0.734916	0.494214
0	H	0.308936	0.296676	0.995932
0	C	0.0190969	0.25247	0.0454691
0	C	0.462939	0.781307	0.549306
0	C	0.964648	0.757675	0.474244
0	C	0.521148	0.270364	0.978459
0	H	0.0355942	0.288176	0.0056671
0	H	0.443257	0.74758	0.509053
0	H	0.944653	0.792833	0.513951
0	H	0.53671	0.234058	0.0181092
0	C	0.126052	0.242388	0.0841205
0	C	0.35841	0.791676	0.589083
0	C	0.860208	0.745596	0.434644
0	C	0.629106	0.281333	0.940387
0	H	0.226368	0.269013	0.0742818
0	H	0.256522	0.767183	0.579874
0	H	0.758086	0.770007	0.443517
0	H	0.729259	0.254714	0.950521
0	C	0.104054	0.198299	0.135258
0	C	0.384868	0.833476	0.640685
0	C	0.886987	0.702293	0.3836
0	C	0.608279	0.326328	0.889507
0	H	0.186591	0.191168	0.165863
0	H	0.304147	0.840709	0.672136
0	H	0.80651	0.693898	0.352187
0	H	0.691671	0.334134	0.859356
0	C	0.976009	0.163089	0.147228
0	C	0.51469	0.866514	0.651936
0	C	0.017082	0.669375	0.372783
0	C	0.480458	0.361641	0.877214
0	H	0.956216	0.131222	0.188038
0	H	0.53778	0.896938	0.692949
0	H	0.0404467	0.637774	0.332184
0	H	0.461763	0.394347	0.836611
0	C	0.551204	0.187775	0.269819
0	C	0.939509	0.840848	0.772302
0	C	0.442439	0.694997	0.252408
0	C	0.0534066	0.336498	0.754165
0	C	0.550769	0.0981037	0.280673
0	C	0.940401	0.930435	0.783391
0	C	0.443876	0.605398	0.241396
0	C	0.0515187	0.426196	0.743423
0	H	0.647206	0.0619471	0.280906
0	H	0.844136	0.966633	0.783226
0	H	0.347847	0.569092	0.241715
0	H	0.147484	0.462604	0.743241
0	C	0.427593	0.0543422	0.289772
0	C	0.0637687	0.973588	0.793273
0	C	0.567327	0.562427	0.231382
0	C	0.927653	0.46922	0.734391
0	H	0.426515	0.984077	0.29771
0	H	0.0653731	0.0437925	0.801362
0	H	0.568916	0.492315	0.223188
0	H	0.925713	0.539401	0.726384
0	C	0.304681	0.100085	0.288094
0	C	0.186195	0.927271	0.792187
0	C	0.689548	0.609022	0.232442
0	C	0.805403	0.422735	0.736222
0	H	0.208445	0.0660475	0.29582
0	H	0.282678	0.960768	0.800586
0	H	0.786251	0.575825	0.22392
0	H	0.708374	0.456004	0.728633
0	C	0.304154	0.189369	0.276183
0	C	0.186207	0.838095	0.77994
0	C	0.68912	0.698168	0.244792
0	C	0.806405	0.333449	0.748104
0	H	0.208077	0.224994	0.274573
0	H	0.281995	0.802082	0.778752
0	H	0.784807	0.734355	0.245999
0	H	0.710768	0.297267	0.749915
0	C	0.426823	0.232834	0.266527
0	C	0.0634614	0.795223	0.769412
0	C	0.566135	0.740819	0.255338
0	C	0.929774	0.290653	0.757538
0	H	0.427754	0.302143	0.256075
0	H	0.0619921	0.72602	0.758683
0	H	0.564418	0.810024	0.266126
0	H	0.931967	0.221301	0.767859
0	C	0.701614	0.317382	0.296788
0	C	0.787362	0.712929	0.80001
0	C	0.288811	0.821675	0.223738
0	C	0.205584	0.208554	0.726077
0	C	0.620107	0.332351	0.34473
0	C	0.867986	0.6993	0.848393
0	C	0.370555	0.835505	0.175733
0	C	0.123521	0.194046	0.678238
0	H	0.53921	0.286988	0.356117
0	H	0.949979	0.744304	0.859144
0	H	0.453711	0.79108	0.165557
0	H	0.0419607	0.239249	0.667337
0	C	0.64201	0.40545	0.378953
0	C	0.843946	0.628083	0.884026
0	C	0.34611	0.906173	0.139704
0	C	0.145427	0.121617	0.643432
0	H	0.576382	0.417212	0.415519
0	H	0.90891	0.617415	0.920943
0	H	0.411961	0.916856	0.103056
0	H	0.0791765	0.110253	0.607
0	C	0.747979	0.463268	0.36663
0	C	0.736637	0.570879	0.87265
0	C	0.23743	0.96265	0.150335
0	C	0.252087	0.063996	0.655043
0	H	0.765454	0.519974	0.393406
0	H	0.717313	0.515618	0.900471
0	H	0.217829	0.017541	0.122224
0	H	0.269635	0.00770481	0.627881
0	C	0.831794	0.447614	0.319773
0	C	0.653739	0.585351	0.825365
0	C	0.153372	0.94788	0.197229
0	C	0.336677	0.0794087	0.701676
0	H	0.917977	0.49048	0.310683
0	H	0.565809	0.543245	0.817178
0	H	0.0643729	0.989384	0.204761
0	H	0.423915	0.0368894	0.710017
0	C	0.80797	0.375753	0.284826
0	C	0.679644	0.655186	0.788992
0	C	0.179411	0.878486	0.233934
0	C	0.31297	0.150598	0.737206
0	H	0.874555	0.365262	0.248101
0	H	0.61337	0.664754	0.752052
0	H	0.111855	0.868484	0.270469
0	H	0.380594	0.160916	0.773673
