#******************************************
#
# CIF file created by Zeo++
# Zeo++ is an open source package to
# analyze microporous materials
#
#*******************************************

_cell_length_a		33.8141(0)
_cell_length_b		8.8135(0)
_cell_length_c		24.5114(0)
_cell_angle_alpha		90(0)
_cell_angle_beta		107.339(0)
_cell_angle_gamma		90(0)

_symmetry_space_group_name_H-M		'P1'
_symmetry_Int_Tables_number		1
_symmetry_cell_setting		Monoclinic

loop_
_symmetry_equiv_pos_as_xyz
'+x,+y,+z'

loop_
_atom_site_label
_atom_site_type_symbol
_atom_site_fract_x
_atom_site_fract_y
_atom_site_fract_z
0	O	0.375031	0.428493	0.504325
0	O	0.611444	0.43112	0.99286
0	O	0.614295	0.585111	0.498386
0	O	0.377276	0.575086	0.0130124
0	O	0.874831	0.922966	0.504201
0	O	0.111111	0.931892	0.993214
0	O	0.113826	0.0850878	0.500414
0	O	0.877557	0.0759263	0.0113195
0	O	0.428631	0.115039	0.458762
0	O	0.562886	0.118163	0.0468636
0	O	0.56101	0.896221	0.546126
0	O	0.425433	0.888107	0.958378
0	O	0.928983	0.613738	0.45715
0	O	0.0625801	0.619752	0.0477134
0	O	0.0596941	0.394195	0.547587
0	O	0.92617	0.388115	0.956979
0	O	0.445046	0.87363	0.526494
0	O	0.542219	0.876407	0.978705
0	O	0.543823	0.140102	0.478764
0	O	0.446241	0.129915	0.0264298
0	O	0.945075	0.368271	0.524197
0	O	0.0420914	0.377461	0.979971
0	O	0.0436824	0.63969	0.480445
0	O	0.946606	0.630465	0.0247942
0	O	0.456644	0.763132	0.451504
0	O	0.536792	0.766717	0.0575366
0	O	0.533372	0.256896	0.553518
0	O	0.451795	0.239766	0.947664
0	O	0.955802	0.251078	0.449637
0	O	0.0368	0.266791	0.0587066
0	O	0.0329862	0.756519	0.555108
0	O	0.95203	0.740922	0.946083
0	C	0.413268	0.346638	0.507043
0	C	0.574184	0.349458	0.994967
0	C	0.576189	0.667596	0.495935
0	C	0.414431	0.656834	0.0104725
0	C	0.913151	0.841155	0.507268
0	C	0.0738498	0.850343	0.995395
0	C	0.0755193	0.166859	0.497417
0	C	0.914831	0.157469	0.00917849
0	C	0.435545	0.306612	0.569694
0	C	0.548519	0.309305	0.93366
0	C	0.553873	0.707259	0.433293
0	C	0.440274	0.697087	0.0716816
0	C	0.93523	0.802871	0.570182
0	C	0.0481282	0.810903	0.934042
0	C	0.0533497	0.204971	0.43452
0	C	0.940498	0.196996	0.0705514
0	C	0.440435	0.448604	0.607478
0	C	0.540948	0.451181	0.89545
0	C	0.548134	0.564704	0.395614
0	C	0.447866	0.555117	0.109848
0	C	0.939998	0.945738	0.607561
0	C	0.0407262	0.953129	0.896003
0	C	0.0485526	0.06218	0.397101
0	C	0.947867	0.0548118	0.108616
0	C	0.45224	0.592456	0.580395
0	C	0.53185	0.596321	0.924448
0	C	0.536767	0.420683	0.423085
0	C	0.45683	0.409923	0.0807582
0	C	0.9519	0.0888849	0.580168
0	C	0.031671	0.098021	0.925185
0	C	0.0367056	0.919093	0.424563
0	C	0.956947	0.909887	0.0794873
0	C	0.429309	0.607403	0.515744
0	C	0.558202	0.61041	0.987819
0	C	0.559903	0.406974	0.487643
0	C	0.430378	0.395883	0.017431
0	C	0.929102	0.101741	0.515463
0	C	0.0579899	0.111361	0.988594
0	C	0.0595776	0.906246	0.489245
0	C	0.930697	0.896496	0.0160514
0	C	0.439272	0.463235	0.485908
0	C	0.550276	0.466547	0.0195572
0	C	0.550098	0.551861	0.517227
0	C	0.438214	0.539797	0.985656
0	C	0.939302	0.957052	0.486147
0	C	0.0500243	0.967255	0.0201774
0	C	0.0494358	0.0509277	0.518618
0	C	0.938697	0.0405427	0.984472
0	C	0.380739	0.593547	0.501687
0	C	0.606263	0.596084	0.996622
0	C	0.608475	0.420256	0.501564
0	C	0.382349	0.410215	0.00882764
0	C	0.880538	0.0879269	0.501081
0	C	0.106038	0.0968074	0.997388
0	C	0.108122	0.920097	0.503521
0	C	0.882638	0.911024	0.00714926
0	C	0.355767	0.642715	0.439954
0	C	0.634236	0.643993	0.0570771
0	C	0.633591	0.372177	0.563399
0	C	0.354298	0.363141	0.948317
0	C	0.855714	0.13576	0.439097
0	C	0.133939	0.14382	0.0579879
0	C	0.133026	0.872248	0.56547
0	C	0.854811	0.864041	0.94651
0	C	0.311377	0.578041	0.42706
0	C	0.678033	0.578016	0.0651151
0	C	0.678035	0.436077	0.575725
0	C	0.31055	0.429314	0.940498
0	C	0.811359	0.0709096	0.426437
0	C	0.17767	0.0772723	0.0660645
0	C	0.177359	0.937241	0.577994
0	C	0.811064	0.930583	0.938325
0	C	0.2902	0.643369	0.469804
0	C	0.69626	0.643983	0.0193604
0	C	0.698949	0.368679	0.533034
0	C	0.292346	0.362758	0.986177
0	C	0.790097	0.138085	0.46878
0	C	0.196052	0.14349	0.020505
0	C	0.198542	0.870083	0.535551
0	C	0.792595	0.864331	0.983789
0	C	0.288057	0.818059	0.465002
0	C	0.698929	0.818492	0.0247526
0	C	0.700889	0.194087	0.538461
0	C	0.289572	0.188344	0.980414
0	C	0.787958	0.312626	0.46323
0	C	0.198944	0.317866	0.0262711
0	C	0.20072	0.695529	0.541122
0	C	0.789708	0.689954	0.978007
0	C	0.332419	0.881918	0.477979
0	C	0.655124	0.883412	0.0163404
0	C	0.656467	0.131182	0.525974
0	C	0.33333	0.123216	0.988665
0	C	0.832321	0.376305	0.476099
0	C	0.155212	0.383377	0.0178357
0	C	0.156374	0.631759	0.528376
0	C	0.833455	0.624449	0.98655
0	C	0.358242	0.836218	0.539018
0	C	0.626431	0.839262	0.956714
0	C	0.630477	0.175824	0.464885
0	C	0.362089	0.166553	0.0483495
0	C	0.858122	0.332156	0.53732
0	C	0.12652	0.340349	0.958081
0	C	0.13049	0.675882	0.46719
0	C	0.862082	0.667447	0.0463536
0	C	0.360125	0.662169	0.544701
0	C	0.623906	0.665344	0.950601
0	C	0.628812	0.349768	0.458596
0	C	0.364737	0.340383	0.0547765
0	C	0.859903	0.158278	0.543742
0	C	0.123809	0.16655	0.951585
0	C	0.128669	0.849767	0.460763
0	C	0.864789	0.841247	0.0528627
0	C	0.31568	0.597893	0.531017
0	C	0.667841	0.600045	0.959553
0	C	0.673338	0.412918	0.471745
0	C	0.32084	0.405838	0.0460434
0	C	0.815456	0.094331	0.530243
0	C	0.167679	0.100632	0.960543
0	C	0.1731	0.913802	0.474114
0	C	0.820901	0.907141	0.0438008
0	C	0.352734	0.816882	0.434311
0	C	0.637774	0.818013	0.0629993
0	C	0.636499	0.198117	0.569711
0	C	0.350675	0.189197	0.942088
0	C	0.85261	0.30975	0.432667
0	C	0.137656	0.317737	0.0642486
0	C	0.13616	0.698267	0.571899
0	C	0.851088	0.690126	0.940218
0	C	0.444423	0.749954	0.493495
0	C	0.545287	0.753059	0.0126181
0	C	0.544912	0.265674	0.510871
0	C	0.443244	0.253287	0.992546
0	C	0.94412	0.242664	0.492163
0	C	0.0451641	0.253712	0.0136806
0	C	0.0446138	0.765184	0.51254
0	C	0.943569	0.7541	0.991042
0	C	0.396804	0.209069	0.468408
0	C	0.592928	0.212574	0.0328321
0	C	0.592728	0.80479	0.534769
0	C	0.395514	0.793488	0.972599
0	C	0.896995	0.703232	0.468668
0	C	0.0925727	0.713328	0.0332086
0	C	0.0916702	0.304869	0.535972
0	C	0.896133	0.294392	0.971311
0	O	0.37582	0.938106	0.269226
0	O	0.623992	0.939966	0.238247
0	O	0.612052	0.066193	0.73534
0	O	0.364834	0.0676072	0.76692
0	O	0.877013	0.441388	0.267921
0	O	0.123587	0.43837	0.239475
0	O	0.111682	0.56643	0.736628
0	O	0.86511	0.569501	0.765157
0	O	0.451931	0.661675	0.346076
0	O	0.546945	0.66292	0.164806
0	O	0.534063	0.338667	0.660023
0	O	0.441788	0.34476	0.840526
0	O	0.955154	0.169798	0.343219
0	O	0.0463678	0.162354	0.165679
0	O	0.0334588	0.837856	0.661314
0	O	0.942294	0.845488	0.839027
0	O	0.441582	0.399745	0.296338
0	O	0.557922	0.400465	0.214563
0	O	0.545817	0.603583	0.70691
0	O	0.430967	0.607104	0.790618
0	O	0.942158	0.905684	0.295309
0	O	0.0581069	0.900371	0.216029
0	O	0.0465641	0.10193	0.709269
0	O	0.930653	0.107514	0.788628
0	O	0.446942	0.297718	0.38065
0	O	0.548861	0.297656	0.129367
0	O	0.542284	0.70891	0.623496
0	O	0.439726	0.709574	0.875789
0	O	0.946722	0.802353	0.379252
0	O	0.0490305	0.79806	0.130809
0	O	0.0419694	0.205189	0.625297
0	O	0.939648	0.209897	0.873817
0	C	0.417152	0.873082	0.292308
0	C	0.582672	0.873695	0.217861
0	C	0.570507	0.129744	0.713267
0	C	0.406173	0.133785	0.78745
0	C	0.918674	0.378974	0.290167
0	C	0.082151	0.373043	0.218828
0	C	0.0700057	0.628738	0.714452
0	C	0.906543	0.634861	0.785826
0	C	0.435534	0.844069	0.242941
0	C	0.566257	0.845072	0.2691
0	C	0.552582	0.156321	0.763232
0	C	0.422651	0.162532	0.736273
0	C	0.936686	0.352634	0.240285
0	C	0.0655247	0.344616	0.269884
0	C	0.0520107	0.654863	0.764357
0	C	0.923174	0.663366	0.734779
0	C	0.435934	0.989224	0.208572
0	C	0.566859	0.990683	0.303621
0	C	0.552611	0.0100465	0.797184
0	C	0.422098	0.0170417	0.701706
0	C	0.936336	0.498693	0.20609
0	C	0.0663993	0.490077	0.304613
0	C	0.052355	0.508701	0.798493
0	C	0.922341	0.517905	0.700053
0	C	0.445589	0.134367	0.244936
0	C	0.555782	0.135055	0.267037
0	C	0.543182	0.865503	0.760457
0	C	0.433072	0.872503	0.738209
0	C	0.945373	0.643715	0.242577
0	C	0.055852	0.63514	0.268357
0	C	0.043366	0.363744	0.761991
0	C	0.932888	0.372827	0.736289
0	C	0.425814	0.136216	0.29438
0	C	0.573512	0.136955	0.215605
0	C	0.56252	0.866351	0.710604
0	C	0.415278	0.870522	0.789579
0	C	0.926075	0.642638	0.292485
0	C	0.0735507	0.636616	0.216906
0	C	0.0626333	0.365067	0.712052
0	C	0.915158	0.371285	0.787709
0	C	0.44205	0.996354	0.332456
0	C	0.556581	0.996049	0.178438
0	C	0.545618	0.00657178	0.673073
0	C	0.432207	0.011282	0.826853
0	C	0.943285	0.503066	0.330192
0	C	0.0563316	0.496226	0.179567
0	C	0.0453774	0.50472	0.674395
0	C	0.932357	0.511666	0.825079
0	C	0.377621	0.105064	0.272911
0	C	0.621769	0.106908	0.234051
0	C	0.610612	0.899152	0.731477
0	C	0.367025	0.900674	0.771046
0	C	0.87805	0.608369	0.271608
0	C	0.121729	0.605297	0.235332
0	C	0.110657	0.399444	0.732973
0	C	0.866979	0.402569	0.76925
0	C	0.353427	0.148599	0.315625
0	C	0.643684	0.150504	0.188675
0	C	0.634507	0.857207	0.688254
0	C	0.345045	0.857001	0.816343
0	C	0.853957	0.64977	0.314664
0	C	0.14379	0.648218	0.190039
0	C	0.134753	0.357993	0.689938
0	C	0.844887	0.359469	0.814486
0	C	0.346917	0.32161	0.317311
0	C	0.650234	0.323475	0.186813
0	C	0.641403	0.684457	0.686351
0	C	0.338499	0.684032	0.818189
0	C	0.846715	0.822338	0.316227
0	C	0.150685	0.821006	0.188319
0	C	0.142024	0.185435	0.688422
0	C	0.838038	0.186647	0.816179
0	C	0.32403	0.380122	0.256787
0	C	0.675515	0.380947	0.246511
0	C	0.664827	0.626058	0.746686
0	C	0.313326	0.626562	0.758445
0	C	0.823227	0.879694	0.255747
0	C	0.176022	0.877843	0.248092
0	C	0.165548	0.128219	0.748907
0	C	0.812774	0.129785	0.756378
0	C	0.280938	0.304529	0.236161
0	C	0.718492	0.304006	0.26379
0	C	0.707728	0.703231	0.766851
0	C	0.270332	0.703369	0.741045
0	C	0.780487	0.801276	0.235684
0	C	0.218848	0.799714	0.265408
0	C	0.208271	0.206796	0.768904
0	C	0.769914	0.207649	0.739013
0	C	0.286209	0.130645	0.234983
0	C	0.712968	0.130285	0.265106
0	C	0.70203	0.876871	0.768248
0	C	0.275822	0.877114	0.739772
0	C	0.786554	0.62779	0.234573
0	C	0.212972	0.626168	0.2666
0	C	0.202154	0.380251	0.770042
0	C	0.775723	0.381242	0.73787
0	C	0.31036	0.0718947	0.295118
0	C	0.686656	0.0728189	0.205804
0	C	0.67739	0.935374	0.708285
0	C	0.302061	0.9346	0.799111
0	C	0.811258	0.570262	0.29465
0	C	0.186607	0.569346	0.207233
0	C	0.177429	0.437685	0.709956
0	C	0.802039	0.438114	0.797258
0	C	0.353845	0.166202	0.212768
0	C	0.647641	0.167725	0.293289
0	C	0.634866	0.838054	0.791414
0	C	0.341224	0.839944	0.711763
0	C	0.853696	0.668218	0.211499
0	C	0.147657	0.665504	0.294646
0	C	0.135013	0.339676	0.793097
0	C	0.841092	0.342442	0.709907
0	C	0.310728	0.0905021	0.193
0	C	0.690642	0.0907894	0.30975
0	C	0.677788	0.915275	0.810734
0	C	0.29821	0.916791	0.695217
0	C	0.810946	0.589721	0.192244
0	C	0.190504	0.58744	0.311148
0	C	0.177747	0.418281	0.812355
0	C	0.79821	0.420272	0.693371
0	C	0.34939	0.339733	0.215858
0	C	0.652302	0.341088	0.29012
0	C	0.639669	0.664743	0.788049
0	C	0.33659	0.666558	0.714908
0	C	0.848469	0.84138	0.214448
0	C	0.15267	0.838726	0.29161
0	C	0.140294	0.166535	0.790197
0	C	0.836134	0.16918	0.712893
0	C	0.438475	0.280257	0.328697
0	C	0.559469	0.280508	0.181443
0	C	0.549901	0.723532	0.675456
0	C	0.429262	0.726925	0.823721
0	C	0.938552	0.786069	0.327286
0	C	0.0596623	0.780528	0.182878
0	C	0.0501683	0.22163	0.677282
0	C	0.92905	0.227372	0.821751
0	C	0.410994	0.727265	0.322878
0	C	0.588049	0.727411	0.186954
0	C	0.575535	0.276492	0.682469
0	C	0.400727	0.280028	0.818331
0	C	0.913725	0.232339	0.321075
0	C	0.0874533	0.227027	0.187725
0	C	0.0749036	0.77536	0.683504
0	C	0.901217	0.780852	0.816924
0	H	0.445079	0.173721	0.437549
0	H	0.54862	0.17613	0.0711119
0	H	0.544989	0.83497	0.56721
0	H	0.439643	0.830241	0.934043
0	H	0.944631	0.676196	0.435865
0	H	0.0486702	0.67792	0.0723187
0	H	0.0440773	0.331589	0.568868
0	H	0.940067	0.330133	0.932314
0	H	0.460574	0.66915	0.389239
0	H	0.537195	0.673645	0.121801
0	H	0.524516	0.326009	0.617091
0	H	0.451513	0.333863	0.883526
0	H	0.964812	0.181405	0.386181
0	H	0.0365773	0.173171	0.122691
0	H	0.0238079	0.82651	0.618337
0	H	0.952094	0.834499	0.882007
0	H	0.449223	0.975052	0.506667
0	H	0.539408	0.977798	0.999353
0	H	0.539799	0.0396994	0.499213
0	H	0.448989	0.0284539	0.0058016
0	H	0.949505	0.468206	0.504019
0	H	0.0391442	0.478552	0.000663925
0	H	0.0392774	0.53965	0.500577
0	H	0.949577	0.529315	0.0041729
0	H	0.450674	0.501443	0.321065
0	H	0.548155	0.501649	0.190118
0	H	0.536264	0.502556	0.681896
0	H	0.440675	0.505952	0.815089
0	H	0.95225	0.00638688	0.320279
0	H	0.0480405	0.00126459	0.191449
0	H	0.0364369	0.00123096	0.684259
0	H	0.94068	0.00660036	0.813208
0	H	0.418124	0.219069	0.5853
0	H	0.564536	0.222414	0.915426
0	H	0.571627	0.792919	0.417321
0	H	0.424328	0.784016	0.0900122
0	H	0.91775	0.715749	0.585901
0	H	0.064025	0.723881	0.915678
0	H	0.070709	0.292275	0.418704
0	H	0.924555	0.284009	0.0888461
0	H	0.466161	0.255735	0.572566
0	H	0.518761	0.257314	0.934462
0	H	0.523568	0.760445	0.430605
0	H	0.470006	0.749001	0.0707259
0	H	0.965976	0.752511	0.573473
0	H	0.0182773	0.759577	0.934788
0	H	0.0225774	0.254943	0.431328
0	H	0.970357	0.248313	0.0698511
0	H	0.410591	0.469283	0.616771
0	H	0.568925	0.471213	0.881414
0	H	0.577518	0.543262	0.385216
0	H	0.419917	0.535272	0.123959
0	H	0.910139	0.966927	0.616725
0	H	0.0687324	0.973126	0.882024
0	H	0.0783451	0.0410247	0.387782
0	H	0.919837	0.0348538	0.122539
0	H	0.463941	0.427266	0.649233
0	H	0.515026	0.429338	0.856153
0	H	0.524034	0.58646	0.354443
0	H	0.473848	0.576776	0.149094
0	H	0.963435	0.925015	0.649423
0	H	0.01483	0.931854	0.856615
0	H	0.0250435	0.082824	0.355289
0	H	0.973738	0.0761265	0.148033
0	H	0.446244	0.694445	0.603187
0	H	0.536828	0.697432	0.900375
0	H	0.542954	0.318701	0.400455
0	H	0.451852	0.308853	0.104853
0	H	0.945735	0.191525	0.602453
0	H	0.0367714	0.199336	0.901308
0	H	0.0427966	0.816358	0.402282
0	H	0.951807	0.808569	0.103339
0	H	0.486191	0.59269	0.586384
0	H	0.498428	0.599976	0.921747
0	H	0.502849	0.419025	0.41719
0	H	0.490229	0.406118	0.0833299
0	H	0.98589	0.0893124	0.586438
0	H	0.998216	0.101873	0.922329
0	H	0.00273538	0.918777	0.418417
0	H	0.990413	0.906023	0.0824161
0	H	0.472603	0.435382	0.499224
0	H	0.517007	0.439755	0.00976465
0	H	0.516832	0.580616	0.504009
0	H	0.471475	0.566544	0.995266
0	H	0.972649	0.929301	0.499893
0	H	0.0167263	0.94078	0.0103424
0	H	0.0160925	0.0785954	0.504921
0	H	0.971998	0.0670378	0.99437
0	H	0.429827	0.472969	0.43884
0	H	0.562301	0.476358	0.0665662
0	H	0.559515	0.542221	0.564324
0	H	0.426069	0.530119	0.938654
0	H	0.930218	0.966613	0.439027
0	H	0.0620654	0.976634	0.0672082
0	H	0.0585484	0.0414052	0.565734
0	H	0.926709	0.0311164	0.937439
0	H	0.370697	0.59498	0.408975
0	H	0.621397	0.596085	0.0902168
0	H	0.618859	0.42122	0.594369
0	H	0.367102	0.411422	0.915202
0	H	0.870728	0.0870554	0.408383
0	H	0.120953	0.0956817	0.0909383
0	H	0.118041	0.920859	0.596229
0	H	0.867851	0.912206	0.913611
0	H	0.293183	0.605327	0.382772
0	H	0.69842	0.603578	0.108392
0	H	0.696351	0.409946	0.620066
0	H	0.29011	0.404413	0.897191
0	H	0.793156	0.096343	0.38199
0	H	0.198013	0.102354	0.109418
0	H	0.195629	0.911887	0.622423
0	H	0.790782	0.905568	0.89493
0	H	0.312796	0.452741	0.430558
0	H	0.676115	0.452828	0.0612865
0	H	0.676715	0.561285	0.5717
0	H	0.312545	0.554444	0.944583
0	H	0.812911	0.945724	0.430689
0	H	0.175627	0.952132	0.0620134
0	H	0.175748	0.0624158	0.573674
0	H	0.813113	0.0557155	0.942401
0	H	0.258285	0.59632	0.460147
0	H	0.727979	0.596997	0.0254812
0	H	0.730919	0.415063	0.542299
0	H	0.260648	0.409851	0.980206
0	H	0.758173	0.0912206	0.459244
0	H	0.227724	0.0960344	0.0266481
0	H	0.230452	0.916994	0.545
0	H	0.760926	0.911797	0.977569
0	H	0.269076	0.852559	0.421832
0	H	0.719798	0.851394	0.067032
0	H	0.719921	0.160433	0.581711
0	H	0.268686	0.15614	0.938059
0	H	0.7691	0.345878	0.419851
0	H	0.219792	0.350022	0.0686528
0	H	0.219636	0.662309	0.584485
0	H	0.76891	0.657825	0.935589
0	H	0.272564	0.865614	0.495042
0	H	0.712728	0.866665	0.992823
0	H	0.716225	0.145128	0.508487
0	H	0.275716	0.139689	0.0122137
0	H	0.772383	0.361363	0.492955
0	H	0.21291	0.366305	0.994551
0	H	0.216248	0.646781	0.511346
0	H	0.775703	0.641508	0.00967005
0	H	0.331297	0.00822103	0.474563
0	H	0.656645	0.00956826	0.020061
0	H	0.657437	0.00492242	0.529771
0	H	0.331738	0.99712	0.984718
0	H	0.831207	0.502411	0.472229
0	H	0.156916	0.509356	0.0218215
0	H	0.157518	0.505635	0.532238
0	H	0.831761	0.498478	0.982547
0	H	0.389897	0.884176	0.549192
0	H	0.595095	0.887796	0.949793
0	H	0.598773	0.128521	0.455145
0	H	0.393388	0.117806	0.0551449
0	H	0.889813	0.379717	0.547315
0	H	0.0952252	0.38918	0.951235
0	H	0.0988173	0.628212	0.457287
0	H	0.893382	0.618586	0.0532879
0	H	0.344352	0.884872	0.570603
0	H	0.638363	0.888305	0.923194
0	H	0.644142	0.125764	0.4333
0	H	0.350147	0.117194	0.0818085
0	H	0.844269	0.382154	0.568706
0	H	0.138518	0.389738	0.924692
0	H	0.144277	0.625897	0.435728
0	H	0.850013	0.618032	0.0796768
0	H	0.377892	0.628404	0.589108
0	H	0.603966	0.632955	0.907121
0	H	0.610943	0.382688	0.414159
0	H	0.384751	0.372184	0.0982805
0	H	0.877625	0.125724	0.588302
0	H	0.103888	0.13484	0.908018
0	H	0.110875	0.882219	0.41622
0	H	0.884658	0.872934	0.0964628
0	H	0.30076	0.640114	0.56241
0	H	0.680696	0.642478	0.926041
0	H	0.688045	0.368967	0.440375
0	H	0.308011	0.362911	0.079517
0	H	0.800478	0.138058	0.561338
0	H	0.180647	0.143458	0.927197
0	H	0.188013	0.87011	0.442934
0	H	0.807869	0.864255	0.0770725
0	H	0.317113	0.472626	0.535044
0	H	0.665927	0.474921	0.955149
0	H	0.672082	0.538057	0.467218
0	H	0.322808	0.530894	0.0506979
0	H	0.816857	0.969202	0.534915
0	H	0.165647	0.97556	0.955859
0	H	0.171659	0.0389475	0.46946
0	H	0.822927	0.0322019	0.0485085
0	H	0.383144	0.87086	0.439805
0	H	0.60796	0.872434	0.0610142
0	H	0.606104	0.14473	0.564819
0	H	0.38046	0.134707	0.943959
0	H	0.882975	0.363583	0.437743
0	H	0.107872	0.372495	0.0621886
0	H	0.105824	0.644342	0.566922
0	H	0.880882	0.63533	0.942354
0	H	0.333972	0.847053	0.390336
0	H	0.658653	0.847371	0.105868
0	H	0.655463	0.168931	0.613702
0	H	0.329765	0.160418	0.899181
0	H	0.833761	0.338561	0.388585
0	H	0.158453	0.346412	0.107238
0	H	0.15508	0.669469	0.61595
0	H	0.830344	0.661513	0.897188
0	H	0.37644	0.24714	0.426311
0	H	0.615428	0.251569	0.0732173
0	H	0.613908	0.766121	0.576269
0	H	0.372972	0.754256	0.932306
0	H	0.875511	0.740746	0.427227
0	H	0.115345	0.752112	0.0733888
0	H	0.113189	0.267553	0.577417
0	H	0.873462	0.255543	0.931062
0	H	0.379182	0.131028	0.488108
0	H	0.608866	0.134369	0.0107306
0	H	0.609495	0.885279	0.514712
0	H	0.379592	0.871555	0.994771
0	H	0.880626	0.621855	0.488928
0	H	0.108179	0.634595	0.0108692
0	H	0.107993	0.386279	0.515672
0	H	0.88042	0.373013	0.993556
0	H	0.4174	0.755341	0.214244
0	H	0.585128	0.756916	0.297258
0	H	0.570764	0.244669	0.792108
0	H	0.40378	0.25069	0.70812
0	H	0.918787	0.263658	0.211534
0	H	0.0840656	0.255667	0.297994
0	H	0.0699385	0.743781	0.793141
0	H	0.904612	0.752227	0.706654
0	H	0.467231	0.797513	0.260877
0	H	0.534484	0.798008	0.253055
0	H	0.520763	0.202389	0.745906
0	H	0.454429	0.209599	0.752395
0	H	0.968584	0.307481	0.25777
0	H	0.0336306	0.298688	0.253623
0	H	0.0201093	0.700072	0.746911
0	H	0.955053	0.709436	0.75105
0	H	0.404974	0.0022661	0.176198
0	H	0.598441	0.00476056	0.334328
0	H	0.583642	0.997249	0.829413
0	H	0.39056	0.00309578	0.670873
0	H	0.905283	0.510317	0.173794
0	H	0.0979773	0.502842	0.335453
0	H	0.0833824	0.497126	0.830847
0	H	0.890774	0.505095	0.669195
0	H	0.458514	0.976945	0.184148
0	H	0.545499	0.97852	0.329908
0	H	0.53012	0.0206781	0.821836
0	H	0.443531	0.0293024	0.675532
0	H	0.958878	0.488565	0.181502
0	H	0.0448954	0.4785	0.330714
0	H	0.0297637	0.518677	0.822999
0	H	0.94385	0.529577	0.673966
0	H	0.435278	0.235494	0.217403
0	H	0.566578	0.236783	0.294034
0	H	0.553935	0.764033	0.7876
0	H	0.422265	0.770919	0.711137
0	H	0.934409	0.744648	0.215208
0	H	0.0669515	0.736279	0.295549
0	H	0.0543736	0.262725	0.789294
0	H	0.9218	0.271719	0.709085
0	H	0.479854	0.146799	0.263186
0	H	0.521375	0.146295	0.250726
0	H	0.508931	0.85176	0.74258
0	H	0.467474	0.860964	0.754583
0	H	0.97958	0.659032	0.260531
0	H	0.0214908	0.648361	0.251979
0	H	0.00916464	0.348306	0.744069
0	H	0.967248	0.359605	0.752693
0	H	0.475795	0.980394	0.343207
0	H	0.522996	0.979172	0.169602
0	H	0.511877	0.0213073	0.662994
0	H	0.46581	0.02799	0.835783
0	H	0.977057	0.489199	0.340294
0	H	0.0227036	0.480287	0.170692
0	H	0.0115976	0.51863	0.664386
0	H	0.965983	0.527682	0.833986
0	H	0.435109	0.00102767	0.373867
0	H	0.562163	0.000292549	0.136131
0	H	0.552196	0.00325224	0.631412
0	H	0.426561	0.00680095	0.86912
0	H	0.936584	0.506598	0.371775
0	H	0.0619815	0.5006	0.137305
0	H	0.0520063	0.501413	0.632754
0	H	0.926681	0.507217	0.867319
0	H	0.370621	0.105967	0.359032
0	H	0.624886	0.108898	0.145888
0	H	0.616926	0.899722	0.644981
0	H	0.363803	0.898629	0.859151
0	H	0.871547	0.608089	0.358045
0	H	0.12496	0.60713	0.147191
0	H	0.117173	0.399554	0.646535
0	H	0.863679	0.400585	0.85735
0	H	0.376338	0.383018	0.335103
0	H	0.620661	0.385292	0.171495
0	H	0.612088	0.622149	0.668921
0	H	0.368057	0.622184	0.833626
0	H	0.875915	0.885365	0.33358
0	H	0.121227	0.88353	0.172993
0	H	0.112834	0.122353	0.671124
0	H	0.867502	0.1242	0.831566
0	H	0.328411	0.347113	0.346664
0	H	0.666992	0.349299	0.155383
0	H	0.659645	0.659995	0.656577
0	H	0.321644	0.658213	0.84951
0	H	0.828367	0.846763	0.345872
0	H	0.167569	0.846371	0.156996
0	H	0.160336	0.160967	0.658735
0	H	0.821105	0.161165	0.847439
0	H	0.320352	0.505449	0.257969
0	H	0.679409	0.506168	0.245239
0	H	0.668833	0.500909	0.745374
0	H	0.309448	0.501332	0.759692
0	H	0.818943	0.00478002	0.256817
0	H	0.180181	0.0029733	0.246919
0	H	0.169856	0.0031366	0.747872
0	H	0.80867	0.00461643	0.757526
0	H	0.263721	0.346555	0.19321
0	H	0.73736	0.345125	0.30611
0	H	0.725343	0.661261	0.809634
0	H	0.251539	0.662287	0.698685
0	H	0.762806	0.842452	0.192803
0	H	0.237747	0.840366	0.307785
0	H	0.226016	0.165537	0.811744
0	H	0.751066	0.167018	0.696607
0	H	0.262241	0.3355	0.264544
0	H	0.735666	0.334734	0.233472
0	H	0.726221	0.673487	0.73807
0	H	0.253081	0.67254	0.771254
0	H	0.761905	0.83064	0.264388
0	H	0.236142	0.829945	0.235187
0	H	0.226795	0.177633	0.740095
0	H	0.752586	0.177207	0.76917
0	H	0.255167	0.0757362	0.220848
0	H	0.743885	0.0742983	0.276863
0	H	0.732926	0.932896	0.782066
0	H	0.244891	0.933002	0.727951
0	H	0.755779	0.570837	0.220788
0	H	0.243774	0.569327	0.27839
0	H	0.232917	0.43729	0.783825
0	H	0.744891	0.437859	0.726057
0	H	0.292852	0.094159	0.325697
0	H	0.702583	0.0953611	0.173397
0	H	0.69469	0.914072	0.677381
0	H	0.286076	0.912009	0.831446
0	H	0.793831	0.590942	0.325448
0	H	0.20264	0.591234	0.1749
0	H	0.194859	0.417128	0.679153
0	H	0.785982	0.416061	0.829555
0	H	0.314345	0.947268	0.293781
0	H	0.682621	0.94824	0.207128
0	H	0.673116	0.0598342	0.709698
0	H	0.306095	0.0591867	0.797804
0	H	0.81585	0.445939	0.293413
0	H	0.182301	0.444898	0.208472
0	H	0.172784	0.561987	0.711207
0	H	0.806296	0.562594	0.796032
0	H	0.370701	0.13643	0.181375
0	H	0.632308	0.138081	0.326392
0	H	0.618205	0.866658	0.823152
0	H	0.356594	0.869634	0.678704
0	H	0.870466	0.639669	0.17988
0	H	0.132218	0.636371	0.327684
0	H	0.118228	0.368236	0.824702
0	H	0.856529	0.371772	0.676885
0	H	0.314564	0.965857	0.191231
0	H	0.686718	0.966251	0.311764
0	H	0.673627	0.0397246	0.812675
0	H	0.30213	0.0413451	0.693243
0	H	0.815396	0.465387	0.190579
0	H	0.186319	0.463047	0.313089
0	H	0.173279	0.542613	0.813991
0	H	0.802349	0.5447	0.691473
0	H	0.293843	0.127889	0.149299
0	H	0.709213	0.127643	0.352792
0	H	0.695043	0.877877	0.854292
0	H	0.279692	0.880045	0.652143
0	H	0.793657	0.626159	0.148571
0	H	0.209112	0.623814	0.354234
0	H	0.195034	0.381938	0.856035
0	H	0.779641	0.383935	0.650258
0	H	0.380324	0.394145	0.230237
0	H	0.621479	0.396409	0.278147
0	H	0.608845	0.609508	0.77387
0	H	0.367416	0.611269	0.726936
0	H	0.879147	0.897711	0.228508
0	H	0.12197	0.894938	0.279589
0	H	0.109632	0.110127	0.776156
0	H	0.866849	0.113076	0.72492
0	H	0.334127	0.385428	0.172734
0	H	0.669273	0.385882	0.332746
0	H	0.655252	0.618878	0.831038
0	H	0.319656	0.621766	0.672268
0	H	0.83276	0.886312	0.171334
0	H	0.169699	0.883116	0.334288
0	H	0.156017	0.12169	0.833319
0	H	0.819132	0.124826	0.670198
0	H	0.397195	0.749586	0.357608
0	H	0.601483	0.749341	0.151859
0	H	0.589029	0.25607	0.647275
0	H	0.387251	0.258107	0.853389
0	H	0.900354	0.253199	0.356341
0	H	0.100807	0.249372	0.152571
0	H	0.088295	0.754461	0.648244
0	H	0.887814	0.758509	0.852024
0	H	0.392301	0.642184	0.292998
0	H	0.606776	0.641528	0.216406
0	H	0.59378	0.363153	0.712009
0	H	0.381962	0.365702	0.78881
0	H	0.895349	0.14565	0.291667
0	H	0.106227	0.140844	0.216971
0	H	0.0932281	0.862321	0.712839
0	H	0.882465	0.867059	0.787655
