#******************************************
#
# CIF file created by Zeo++
# Zeo++ is an open source package to
# analyze microporous materials
#
#*******************************************

_cell_length_a		24.7415(0)
_cell_length_b		6.56144(0)
_cell_length_c		13.4386(0)
_cell_angle_alpha		90(0)
_cell_angle_beta		90(0)
_cell_angle_gamma		90(0)

_symmetry_space_group_name_H-M		'P1'
_symmetry_Int_Tables_number		1
_symmetry_cell_setting		Monoclinic

loop_
_symmetry_equiv_pos_as_xyz
'+x,+y,+z'

loop_
_atom_site_label
_atom_site_type_symbol
_atom_site_fract_x
_atom_site_fract_y
_atom_site_fract_z
0	O	0.593963	0.97953	0.167719
0	O	0.415755	0.0773917	0.16775
0	O	0.921058	0.46097	0.862729
0	O	0.0886539	0.59566	0.862683
0	O	0.561509	0.860793	0.995477
0	O	0.448196	0.196107	0.995415
0	O	0.953148	0.350893	0.0364279
0	O	0.0566021	0.705681	0.0363846
0	O	0.744089	0.789028	0.883383
0	O	0.265618	0.267361	0.88326
0	O	0.770557	0.298188	0.150605
0	O	0.239213	0.758907	0.15045
0	O	0.818174	0.809877	0.0154854
0	O	0.191559	0.246702	0.0152874
0	O	0.696212	0.317659	0.0187918
0	O	0.313531	0.738867	0.0186468
0	O	0.894454	0.860752	0.13644
0	O	0.115258	0.196302	0.136179
0	O	0.619768	0.366407	0.897565
0	O	0.389934	0.690449	0.897324
0	O	0.907266	0.105568	0.293808
0	O	0.10239	0.951237	0.293551
0	O	0.607478	0.604776	0.737849
0	O	0.402231	0.452325	0.737656
0	O	0.964189	0.702293	0.317289
0	O	0.045582	0.355159	0.317051
0	O	0.549107	0.204104	0.71752
0	O	0.460634	0.852523	0.716777
0	O	0.892493	0.622378	0.410052
0	O	0.117232	0.434093	0.410088
0	O	0.620589	0.11714	0.625731
0	O	0.389029	0.939852	0.625429
0	O	0.713023	0.689015	0.473625
0	O	0.296789	0.367536	0.473642
0	O	0.800037	0.177682	0.561958
0	O	0.20959	0.879364	0.561726
0	O	0.675417	0.0301772	0.292146
0	O	0.33427	0.026609	0.292085
0	O	0.839928	0.511663	0.738193
0	O	0.169761	0.545191	0.738092
0	C	0.633578	0.914215	0.106431
0	C	0.376138	0.142637	0.106427
0	C	0.881139	0.403638	0.92516
0	C	0.128571	0.653159	0.925072
0	C	0.615607	0.861833	0.00513849
0	C	0.394097	0.194849	0.00508346
0	C	0.899058	0.354939	0.0269503
0	C	0.110684	0.701712	0.0268904
0	C	0.653593	0.821321	0.932908
0	C	0.356114	0.234994	0.932837
0	C	0.86103	0.320436	0.0998145
0	C	0.148734	0.736144	0.099749
0	C	0.709215	0.818192	0.959415
0	C	0.300491	0.238191	0.95933
0	C	0.805333	0.321027	0.0738485
0	C	0.20442	0.735851	0.0737329
0	C	0.726807	0.842979	0.057973
0	C	0.282907	0.213601	0.0578914
0	C	0.787601	0.343249	0.975252
0	C	0.222129	0.713618	0.975118
0	C	0.783431	0.83186	0.0839275
0	C	0.226273	0.224819	0.0837796
0	C	0.730863	0.334646	0.949893
0	C	0.278862	0.722125	0.949743
0	C	0.801453	0.853552	0.1863
0	C	0.208239	0.203398	0.186156
0	C	0.712671	0.352833	0.847434
0	C	0.297024	0.704131	0.847268
0	C	0.855737	0.874679	0.205214
0	C	0.153939	0.182248	0.204989
0	C	0.658434	0.375445	0.82853
0	C	0.351263	0.681525	0.828299
0	C	0.87977	0.91778	0.307972
0	C	0.129919	0.139012	0.30774
0	C	0.634386	0.415221	0.725476
0	C	0.375298	0.6418	0.725223
0	C	0.83603	0.913001	0.39048
0	C	0.173627	0.143449	0.3903
0	C	0.678002	0.405605	0.642756
0	C	0.331648	0.651313	0.642588
0	C	0.781673	0.99245	0.355148
0	C	0.22798	0.0640724	0.354908
0	C	0.732624	0.484179	0.677237
0	C	0.277036	0.572772	0.677115
0	C	0.760635	0.856844	0.270107
0	C	0.249045	0.199927	0.269999
0	C	0.7533	0.350809	0.763361
0	C	0.256372	0.706189	0.763232
0	C	0.70539	0.937805	0.23477
0	C	0.304301	0.119077	0.2347
0	C	0.809182	0.427716	0.797285
0	C	0.200498	0.629234	0.797152
0	C	0.687449	0.894864	0.132396
0	C	0.322263	0.161986	0.132346
0	C	0.82705	0.388514	0.899974
0	C	0.182654	0.668401	0.899857
0	C	0.918674	0.742876	0.340456
0	C	0.091041	0.313991	0.34032
0	C	0.594826	0.241153	0.69439
0	C	0.41485	0.815734	0.693978
0	C	0.83519	0.685264	0.42104
0	C	0.174511	0.371018	0.421077
0	C	0.678105	0.176588	0.61434
0	C	0.331521	0.88029	0.614094
0	C	0.80329	0.543372	0.352449
0	C	0.206443	0.513173	0.352633
0	C	0.709407	0.0358828	0.684407
0	C	0.300197	0.0210789	0.684095
0	C	0.751256	0.635727	0.310026
0	C	0.258464	0.420866	0.310084
0	C	0.761769	0.127515	0.725612
0	C	0.247863	0.929445	0.7254
0	C	0.706827	0.625174	0.389596
0	C	0.302945	0.431285	0.389587
0	C	0.805946	0.112183	0.645759
0	C	0.203652	0.944506	0.645591
0	C	0.655595	0.523281	0.357821
0	C	0.354191	0.532986	0.357679
0	C	0.856468	0.00496003	0.677074
0	C	0.153052	0.0510951	0.677039
0	C	0.538849	0.797702	0.89964
0	C	0.470855	0.258517	0.899461
0	C	0.975528	0.292831	0.133239
0	C	0.0342129	0.763185	0.13325
0	C	0.930446	0.200448	0.381338
0	C	0.0792452	0.856161	0.381047
0	C	0.58261	0.691892	0.649927
0	C	0.426861	0.364503	0.649678
0	H	0.609992	0.0272068	0.234943
0	H	0.399699	0.029616	0.234934
0	H	0.905301	0.50621	0.794863
0	H	0.104404	0.550432	0.794801
0	H	0.784244	0.780826	0.910121
0	H	0.22547	0.275481	0.909925
0	H	0.730272	0.293691	0.124418
0	H	0.279474	0.763817	0.124216
0	H	0.642249	0.787424	0.855716
0	H	0.367446	0.268609	0.855636
0	H	0.872376	0.288508	0.177184
0	H	0.137389	0.767811	0.177163
0	H	0.877789	0.833781	0.0639501
0	H	0.131947	0.223235	0.0636837
0	H	0.636463	0.342084	0.970204
0	H	0.373255	0.714502	0.969991
0	H	0.849332	0.00841242	0.455531
0	H	0.160286	0.0478144	0.45519
0	H	0.664851	0.499121	0.577023
0	H	0.344781	0.557721	0.576865
0	H	0.752466	0.994935	0.418349
0	H	0.257168	0.0612743	0.418127
0	H	0.761816	0.483129	0.613997
0	H	0.247825	0.573719	0.61392
0	H	0.785346	0.153822	0.330283
0	H	0.224293	0.902792	0.32986
0	H	0.729343	0.646833	0.700453
0	H	0.280329	0.410152	0.700386
0	H	0.826476	0.660662	0.500993
0	H	0.183222	0.395231	0.501062
0	H	0.686847	0.148259	0.534722
0	H	0.322754	0.90848	0.534457
0	H	0.794043	0.397864	0.392245
0	H	0.215698	0.658447	0.392559
0	H	0.718073	0.887767	0.646393
0	H	0.291487	0.169035	0.645947
0	H	0.829419	0.494374	0.28921
0	H	0.180306	0.562341	0.289438
0	H	0.683086	0.990983	0.748116
0	H	0.326517	0.0662678	0.747763
0	H	0.73912	0.538964	0.244554
0	H	0.270579	0.517937	0.244674
0	H	0.77375	0.0329829	0.792006
0	H	0.235877	0.0240178	0.791749
0	H	0.639689	0.582649	0.287142
0	H	0.370153	0.473018	0.287174
0	H	0.873056	0.0636338	0.747388
0	H	0.136501	0.991858	0.74727
0	H	0.623243	0.540618	0.413239
0	H	0.386523	0.516256	0.413202
0	H	0.888734	0.0183655	0.621238
0	H	0.120789	0.0376388	0.62119
0	H	0.66157	0.357605	0.346816
0	H	0.348191	0.698554	0.346304
0	H	0.849449	0.839943	0.688546
0	H	0.159955	0.216091	0.688704
0	H	0.555634	0.650104	0.876244
0	H	0.454043	0.40587	0.875748
0	H	0.95876	0.14624	0.158061
0	H	0.0509497	0.9097	0.158247
0	H	0.54603	0.916589	0.843904
0	H	0.463761	0.139108	0.843973
0	H	0.968003	0.413861	0.187726
0	H	0.041741	0.641874	0.187581
0	H	0.495611	0.785969	0.917837
0	H	0.514092	0.270619	0.917675
0	H	0.018886	0.280799	0.115846
0	H	0.990844	0.775198	0.115856
0	H	0.958023	0.0968428	0.419409
0	H	0.0516006	0.959511	0.419111
0	H	0.555498	0.583209	0.614175
0	H	0.454061	0.47259	0.613716
0	H	0.898346	0.258228	0.429971
0	H	0.111361	0.79852	0.429741
0	H	0.613884	0.749986	0.599584
0	H	0.395438	0.306802	0.599487
0	H	0.953264	0.329116	0.348329
0	H	0.0564941	0.72734	0.348031
0	H	0.559163	0.819783	0.681854
0	H	0.450172	0.236235	0.681588
