#******************************************
#
# CIF file created by Zeo++
# Zeo++ is an open source package to
# analyze microporous materials
#
#*******************************************

_cell_length_a		10.3587(0)
_cell_length_b		10.7014(0)
_cell_length_c		23.4332(0)
_cell_angle_alpha		94.4117(0)
_cell_angle_beta		99.8451(0)
_cell_angle_gamma		91.2782(0)

_symmetry_space_group_name_H-M		'P1'
_symmetry_Int_Tables_number		1
_symmetry_cell_setting		Triclinic

loop_
_symmetry_equiv_pos_as_xyz
'+x,+y,+z'

loop_
_atom_site_label
_atom_site_type_symbol
_atom_site_fract_x
_atom_site_fract_y
_atom_site_fract_z
0	C	0.757167	0.208869	0.471126
0	O	0.69949	0.210293	0.525582
0	C	0.709201	0.0912709	0.432026
0	H	0.73315	0.00575405	0.454718
0	H	0.754354	0.0852515	0.392833
0	H	0.602629	0.0886267	0.418076
0	C	0.700926	0.328577	0.447451
0	H	0.698448	0.402705	0.482936
0	H	0.598926	0.314626	0.4251
0	H	0.758604	0.365687	0.417107
0	C	0.905719	0.216057	0.489421
0	H	0.937524	0.295826	0.521629
0	H	0.954853	0.226949	0.45218
0	H	0.942439	0.131029	0.509195
0	C	0.724985	0.119832	0.563816
0	O	0.729917	0.0074371	0.549632
0	N	0.739231	0.175686	0.619905
0	H	0.718001	0.270129	0.626416
0	C	0.753259	0.100355	0.670936
0	H	0.847314	0.0464727	0.672198
0	C	0.759662	0.188226	0.726364
0	H	0.663054	0.232328	0.726408
0	H	0.829153	0.268473	0.725627
0	C	0.799801	0.121398	0.782404
0	H	0.743457	0.0295681	0.778052
0	C	0.764948	0.201572	0.834411
0	H	0.65928	0.215661	0.829447
0	H	0.814456	0.294343	0.839985
0	H	0.79406	0.156802	0.874942
0	C	0.94652	0.0951825	0.792625
0	H	0.973047	0.0359128	0.756436
0	H	0.974427	0.0460831	0.831996
0	H	0.00716498	0.18184	0.797874
0	C	0.641034	0.000156919	0.66594
0	O	0.665852	0.890681	0.674499
0	N	0.514421	0.0373713	0.647586
0	H	0.492821	0.13214	0.648449
0	C	0.399692	0.950695	0.645033
0	H	0.308743	0.00297494	0.627765
0	C	0.387313	0.906528	0.704813
0	H	0.468513	0.84298	0.718229
0	H	0.295024	0.848989	0.700348
0	C	0.390891	0.0145016	0.752811
0	H	0.482929	0.073014	0.755016
0	C	0.274254	0.0997312	0.740722
0	H	0.285871	0.182727	0.771807
0	H	0.181557	0.0515149	0.743581
0	H	0.264495	0.133577	0.69705
0	C	0.395813	0.95959	0.811779
0	H	0.397366	0.0341088	0.846697
0	H	0.48364	0.905233	0.822904
0	H	0.310479	0.89756	0.812133
0	C	0.409951	0.837225	0.600948
0	O	0.3837	0.729034	0.610241
0	N	0.446703	0.866894	0.549055
0	H	0.477656	0.957312	0.545475
0	C	0.472299	0.772652	0.502333
0	C	0.343601	0.703091	0.474743
0	H	0.274339	0.766023	0.451769
0	H	0.295915	0.662951	0.508087
0	H	0.360986	0.6259	0.443603
0	C	0.531843	0.839647	0.457019
0	H	0.462356	0.902379	0.434017
0	H	0.559704	0.771708	0.424143
0	H	0.621416	0.896762	0.476626
0	C	0.575073	0.676483	0.527457
0	O	0.562209	0.564196	0.512258
0	N	0.683961	0.727473	0.565503
0	H	0.695607	0.823342	0.576473
0	C	0.786534	0.649783	0.59576
0	H	0.827596	0.588533	0.562374
0	C	0.894936	0.733689	0.634119
0	H	0.850489	0.793768	0.666165
0	H	0.964196	0.674034	0.66028
0	C	0.970562	0.817719	0.599326
0	H	0.89831	0.861015	0.56584
0	C	0.0436421	0.924679	0.640367
0	H	0.0974582	0.987654	0.616956
0	H	0.115395	0.889484	0.67495
0	H	0.974725	0.982507	0.660982
0	C	0.0657169	0.742134	0.568227
0	H	0.0158416	0.661669	0.541068
0	H	0.145758	0.706122	0.599039
0	H	0.111645	0.800287	0.540212
0	C	0.73026	0.5592	0.634727
0	O	0.77378	0.45391	0.639773
0	N	0.634236	0.60291	0.664787
0	H	0.601631	0.693168	0.661284
0	C	0.562778	0.518929	0.697036
0	H	0.636549	0.470743	0.728383
0	C	0.46962	0.594162	0.729604
0	H	0.411008	0.655696	0.699258
0	H	0.528386	0.658375	0.764272
0	C	0.373736	0.512745	0.756089
0	H	0.311557	0.452341	0.720061
0	C	0.44575	0.42709	0.799516
0	H	0.498062	0.355054	0.777533
0	H	0.376976	0.377933	0.821527
0	H	0.517064	0.479553	0.833194
0	C	0.282684	0.598675	0.785033
0	H	0.229549	0.659357	0.754099
0	H	0.336863	0.659209	0.821492
0	H	0.209139	0.543851	0.801927
0	C	0.486342	0.413189	0.654944
0	O	0.505008	0.303372	0.665307
0	N	0.395281	0.446877	0.609102
0	H	0.386074	0.540824	0.601331
0	C	0.321025	0.354563	0.563858
0	C	0.239807	0.424475	0.51644
0	H	0.175627	0.492073	0.534436
0	H	0.176614	0.359851	0.484455
0	H	0.304946	0.476097	0.493045
0	C	0.412399	0.264297	0.538435
0	H	0.461341	0.204517	0.571096
0	H	0.491898	0.315981	0.523003
0	H	0.360754	0.203014	0.501732
0	C	0.224468	0.279526	0.59402
0	O	0.224103	0.169172	0.602412
0	O	0.131659	0.357389	0.609656
0	C	0.0350001	0.306184	0.640713
0	H	0.956245	0.374469	0.634946
0	H	0.079921	0.304161	0.686292
0	H	8.05034e-05	0.212543	0.621459
0	C	0.912126	0.629791	0.357434
0	O	0.96082	0.637797	0.301127
0	C	0.924746	0.768072	0.379533
0	H	0.858136	0.825054	0.351572
0	H	0.0241252	0.806819	0.379495
0	H	0.904357	0.782142	0.423894
0	C	0.771162	0.578524	0.343036
0	H	0.711169	0.631469	0.3106
0	H	0.7244	0.581856	0.38168
0	H	0.765485	0.48032	0.324684
0	C	0.00157783	0.548188	0.396098
0	H	0.00135923	0.451801	0.375395
0	H	0.970005	0.542112	0.438151
0	H	0.103275	0.584883	0.40452
0	C	0.966441	0.534148	0.263872
0	O	0.963639	0.425323	0.276831
0	N	0.983149	0.572882	0.210373
0	H	0.991706	0.668018	0.204685
0	C	0.961923	0.483949	0.157551
0	H	0.86723	0.428128	0.155173
0	C	0.958137	0.556845	0.103375
0	H	0.879521	0.62592	0.101705
0	H	0.0503295	0.616052	0.107933
0	C	0.94048	0.472323	0.0459527
0	H	0.00447074	0.389794	0.0525855
0	C	0.79817	0.423383	0.0269284
0	H	0.768602	0.361969	0.0580755
0	H	0.784593	0.369127	0.984474
0	H	0.729783	0.500066	0.022796
0	C	0.984684	0.544702	0.998107
0	H	0.0853589	0.583372	0.0116101
0	H	0.921202	0.622776	0.986657
0	H	0.982089	0.483863	0.958007
0	C	0.0716057	0.387673	0.161918
0	O	0.0438339	0.274424	0.156144
0	N	0.200291	0.433048	0.176105
0	H	0.224562	0.527283	0.173924
0	C	0.310116	0.346766	0.176104
0	H	0.40501	0.404748	0.189944
0	C	0.30748	0.277978	0.115853
0	H	0.210114	0.228959	0.101513
0	H	0.379978	0.202536	0.119784
0	C	0.333525	0.364579	0.0691078
0	H	0.262001	0.441791	0.0675624
0	C	0.309977	0.288908	0.00958902
0	H	0.206316	0.260464	0.996078
0	H	0.366579	0.203001	0.0103016
0	H	0.33748	0.343387	0.975505
0	C	0.472217	0.424196	0.0833418
0	H	0.488345	0.477849	0.126161
0	H	0.488707	0.489139	0.0512235
0	H	0.547297	0.35351	0.0844264
0	C	0.303401	0.249889	0.221481
0	O	0.32811	0.139313	0.211859
0	N	0.271216	0.295803	0.274163
0	H	0.24328	0.386908	0.278521
0	C	0.245371	0.215224	0.320509
0	C	0.374157	0.163358	0.349917
0	H	0.447078	0.238715	0.36747
0	H	0.416618	0.100891	0.31881
0	H	0.357714	0.107808	0.385678
0	C	0.180979	0.293257	0.364712
0	H	0.248539	0.367344	0.388628
0	H	0.151303	0.234109	0.396817
0	H	0.0916072	0.339167	0.344257
0	C	0.148283	0.102525	0.294099
0	O	0.168009	0.995497	0.307634
0	N	0.0370142	0.132532	0.256612
0	H	0.0210651	0.223538	0.245473
0	C	0.938118	0.0363324	0.22705
0	H	0.90706	0.977944	0.260844
0	C	0.819806	0.0982584	0.192966
0	H	0.852403	0.14874	0.157748
0	H	0.748308	0.0236208	0.171113
0	C	0.751619	0.191667	0.230641
0	H	0.824278	0.26949	0.250131
0	C	0.702974	0.129768	0.280223
0	H	0.643389	0.194062	0.302583
0	H	0.784757	0.102918	0.312612
0	H	0.641262	0.0447973	0.264051
0	C	0.637183	0.249499	0.192202
0	H	0.603657	0.332741	0.21507
0	H	0.552541	0.183316	0.179988
0	H	0.664584	0.279147	0.15206
0	C	0.993052	0.941649	0.184442
0	O	0.947146	0.833338	0.17596
0	N	0.0887866	0.982917	0.155092
0	H	0.123264	0.075248	0.161685
0	C	0.160572	0.894625	0.12096
0	H	0.0868883	0.833044	0.0894652
0	C	0.250421	0.967568	0.0885253
0	H	0.189277	0.0172832	0.054469
0	H	0.307031	0.0423908	0.119435
0	C	0.349352	0.887173	0.0609425
0	H	0.401148	0.827389	0.0943425
0	C	0.453075	0.974958	0.0437925
0	H	0.518973	0.922967	0.0195708
0	H	0.514292	0.0233075	0.0823906
0	H	0.408828	0.0475597	0.0166685
0	C	0.281952	0.80033	0.0088045
0	H	0.208239	0.737502	0.0213617
0	H	0.352562	0.740523	0.990996
0	H	0.233104	0.851985	0.973091
0	C	0.240706	0.805716	0.161545
0	O	0.226357	0.69151	0.15027
0	N	0.330615	0.859027	0.20779
0	H	0.336887	0.955748	0.216698
0	C	0.402724	0.784764	0.253362
0	C	0.307419	0.710024	0.281886
0	H	0.246473	0.642148	0.25032
0	H	0.239336	0.773374	0.300311
0	H	0.358352	0.65806	0.316927
0	C	0.492581	0.873653	0.297995
0	H	0.562476	0.927519	0.277404
0	H	0.550344	0.823078	0.331871
0	H	0.434608	0.942348	0.319547
0	C	0.491862	0.692798	0.224394
0	O	0.491737	0.579387	0.223357
0	C	0.679139	0.690311	0.175655
0	H	0.752272	0.764505	0.171798
0	H	0.632724	0.645991	0.13338
0	H	0.722111	0.620944	0.204557
0	O	0.581597	0.75981	0.201565
