#******************************************
#
# CIF file created by Zeo++
# Zeo++ is an open source package to
# analyze microporous materials
#
#*******************************************

_cell_length_a		21.2085(0)
_cell_length_b		18.4659(0)
_cell_length_c		16.2532(0)
_cell_angle_alpha		90(0)
_cell_angle_beta		131.537(0)
_cell_angle_gamma		90(0)

_symmetry_space_group_name_H-M		'P1'
_symmetry_Int_Tables_number		1
_symmetry_cell_setting		Monoclinic

loop_
_symmetry_equiv_pos_as_xyz
'+x,+y,+z'

loop_
_atom_site_label
_atom_site_type_symbol
_atom_site_fract_x
_atom_site_fract_y
_atom_site_fract_z
0	C	0.87996	0.485786	0.914212
0	C	0.103368	0.48041	0.123105
0	C	0.380064	0.983037	0.915469
0	C	0.603879	0.982125	0.12219
0	C	0.869829	0.403596	0.91234
0	C	0.113378	0.398268	0.124294
0	C	0.370946	0.900756	0.914022
0	C	0.613232	0.899873	0.123729
0	C	0.906859	0.374985	0.0249291
0	C	0.0757653	0.369905	0.01136
0	C	0.406807	0.872147	0.0260878
0	C	0.577072	0.871207	0.0115636
0	C	0.872724	0.413517	0.0716116
0	C	0.108829	0.408929	0.963629
0	C	0.371258	0.910446	0.0710917
0	C	0.611936	0.909652	0.96576
0	C	0.887346	0.495085	0.0750052
0	C	0.0950661	0.490519	0.961662
0	C	0.384847	0.992118	0.0741232
0	C	0.598586	0.991318	0.963113
0	C	0.858277	0.537133	0.124635
0	C	0.124682	0.532609	0.91273
0	C	0.353816	0.0335546	0.121734
0	C	0.629794	0.0327379	0.915701
0	C	0.879519	0.616727	0.141096
0	C	0.103517	0.612185	0.896427
0	C	0.374003	0.113358	0.138158
0	C	0.609487	0.11252	0.899086
0	C	0.844653	0.651847	0.0319703
0	C	0.138406	0.64705	0.00570305
0	C	0.341059	0.148589	0.0300087
0	C	0.642353	0.147783	0.00718852
0	C	0.875518	0.609014	0.981466
0	C	0.107615	0.604103	0.0562271
0	C	0.373388	0.10597	0.981193
0	C	0.610084	0.105122	0.0560581
0	C	0.845961	0.528064	0.96004
0	C	0.136974	0.523074	0.0770703
0	C	0.344368	0.0248579	0.959402
0	C	0.639251	0.0240382	0.077922
0	C	0.849389	0.646049	0.87775
0	C	0.133955	0.64112	0.160076
0	C	0.348274	0.143225	0.878204
0	C	0.635096	0.142408	0.158969
0	C	0.873497	0.726685	0.895685
0	C	0.10999	0.721828	0.142467
0	C	0.372483	0.223877	0.896814
0	C	0.610804	0.223045	0.140269
0	C	0.835558	0.766348	0.937017
0	C	0.147694	0.761576	0.100851
0	C	0.333671	0.263424	0.93707
0	C	0.64959	0.262616	0.0999901
0	C	0.874598	0.730507	0.0500476
0	C	0.108394	0.725661	0.987734
0	C	0.371625	0.227167	0.0494203
0	C	0.611664	0.226313	0.987663
0	C	0.857586	0.784738	0.106038
0	C	0.125073	0.779761	0.931275
0	C	0.354399	0.281213	0.105355
0	C	0.628809	0.280348	0.931637
0	C	0.839208	0.856427	0.0456846
0	C	0.144083	0.851386	0.992006
0	C	0.336236	0.353027	0.0454164
0	C	0.647151	0.352145	0.991733
0	C	0.864716	0.845719	0.976654
0	C	0.118515	0.84095	0.0610223
0	C	0.3627	0.342747	0.977387
0	C	0.620516	0.341915	0.0595701
0	C	0.738826	0.763303	0.849837
0	C	0.244441	0.758559	0.187785
0	C	0.236977	0.260461	0.848954
0	C	0.746299	0.259709	0.188126
0	C	0.749647	0.522157	0.880142
0	C	0.233276	0.51706	0.156449
0	C	0.248081	0.0180418	0.878114
0	C	0.735548	0.0173577	0.158938
0	C	0.829972	0.908351	0.89493
0	C	0.153191	0.903714	0.142564
0	C	0.328562	0.405646	0.896146
0	C	0.65449	0.404815	0.140769
0	C	0.875216	0.914252	0.851503
0	C	0.106841	0.910401	0.18438
0	C	0.37594	0.412993	0.855849
0	C	0.606425	0.412389	0.180065
0	C	0.838059	0.979746	0.951955
0	C	0.146356	0.974899	0.0860719
0	C	0.334271	0.476614	0.952178
0	C	0.649458	0.475723	0.0851588
0	C	0.891808	0.977039	0.0742542
0	C	0.0926301	0.972399	0.963772
0	C	0.387865	0.474023	0.0744461
0	C	0.595962	0.473293	0.962907
0	C	0.933974	0.244549	0.0556892
0	C	0.0509611	0.238924	0.982004
0	C	0.432383	0.741277	0.0549553
0	C	0.552467	0.740174	0.983021
0	C	0.891488	0.173831	0.00660917
0	C	0.0955536	0.168855	0.0306119
0	C	0.38811	0.671033	0.00660678
0	C	0.597376	0.670171	0.0314236
0	O	0.876232	0.299567	0.0037602
0	O	0.107431	0.294825	0.0323416
0	O	0.375512	0.796931	0.00432686
0	O	0.608873	0.796157	0.0334889
0	O	0.821925	0.509696	0.151229
0	O	0.161597	0.505225	0.886928
0	O	0.316796	0.0054673	0.146965
0	O	0.667139	0.00463458	0.89096
0	O	0.891035	0.915994	0.12283
0	O	0.0928304	0.911114	0.915074
0	O	0.387436	0.412627	0.122833
0	O	0.596253	0.411846	0.914456
0	O	0.936115	0.0262492	0.13762
0	O	0.0488997	0.0218027	0.900493
0	O	0.431569	0.523401	0.137781
0	O	0.552474	0.52274	0.899613
0	O	0.00866967	0.256024	0.130846
0	O	0.975742	0.249006	0.908275
0	O	0.507483	0.751829	0.128704
0	O	0.47726	0.750272	0.909357
0	C	0.996626	0.00192554	0.655675
0	C	0.987695	0.00130307	0.381297
0	C	0.493697	0.502271	0.654012
0	C	0.490399	0.501847	0.383258
0	C	0.977705	0.921244	0.626238
0	C	0.00667909	0.920594	0.410598
0	C	0.474288	0.42149	0.625149
0	C	0.509891	0.421104	0.412119
0	C	0.934007	0.890376	0.664569
0	C	0.050277	0.889864	0.372049
0	C	0.43239	0.391149	0.666273
0	C	0.551694	0.390797	0.370841
0	C	0.853815	0.931937	0.617286
0	C	0.130426	0.9315	0.419338
0	C	0.352804	0.432947	0.620923
0	C	0.631196	0.432679	0.416023
0	C	0.877515	0.0113148	0.653231
0	C	0.106832	0.0109453	0.383849
0	C	0.376856	0.512449	0.655955
0	C	0.607081	0.512172	0.381048
0	C	0.80476	0.0548132	0.624321
0	C	0.179738	0.0544251	0.413187
0	C	0.304651	0.556231	0.628178
0	C	0.679243	0.555985	0.40876
0	C	0.819777	0.134908	0.649103
0	C	0.164827	0.134532	0.388636
0	C	0.319985	0.636369	0.65251
0	C	0.663782	0.636085	0.38426
0	C	0.864012	0.170172	0.613455
0	C	0.120367	0.16971	0.424027
0	C	0.362942	0.671303	0.6148
0	C	0.62095	0.670978	0.422176
0	C	0.943631	0.125801	0.657642
0	C	0.0407205	0.125316	0.379656
0	C	0.441927	0.626664	0.657178
0	C	0.542016	0.626331	0.379961
0	C	0.917414	0.047078	0.609816
0	C	0.0668866	0.0465464	0.427313
0	C	0.415165	0.547756	0.610105
0	C	0.568853	0.547424	0.427041
0	C	0.99616	0.163275	0.635487
0	C	0.988167	0.162795	0.401764
0	C	0.492776	0.663928	0.632174
0	C	0.491271	0.663582	0.405136
0	C	0.0132437	0.244194	0.665401
0	C	0.970957	0.243691	0.371613
0	C	0.511293	0.744683	0.663174
0	C	0.472758	0.744345	0.374175
0	C	0.930664	0.284395	0.612449
0	C	0.0534925	0.284012	0.424575
0	C	0.429536	0.785501	0.612628
0	C	0.554532	0.785148	0.424717
0	C	0.891751	0.247759	0.657484
0	C	0.0926201	0.247267	0.379903
0	C	0.391471	0.748814	0.658804
0	C	0.592417	0.748492	0.378284
0	C	0.827401	0.302755	0.636366
0	C	0.156973	0.302252	0.400991
0	C	0.327842	0.80398	0.639199
0	C	0.655994	0.803659	0.39774
0	C	0.852726	0.374789	0.618426
0	C	0.131533	0.374315	0.418673
0	C	0.353389	0.87603	0.621653
0	C	0.630635	0.875684	0.415606
0	C	0.939809	0.363095	0.653009
0	C	0.0442877	0.362627	0.383635
0	C	0.43989	0.863989	0.654662
0	C	0.544194	0.863667	0.382777
0	C	0.872611	0.282142	0.486645
0	C	0.111387	0.282021	0.550354
0	C	0.370426	0.784241	0.48667
0	C	0.613727	0.783768	0.550664
0	C	0.855105	0.0478239	0.483607
0	C	0.129135	0.047155	0.553513
0	C	0.351327	0.548136	0.483884
0	C	0.632767	0.547817	0.553252
0	C	0.957153	0.426554	0.609834
0	C	0.0264579	0.426234	0.426032
0	C	0.457149	0.927689	0.611704
0	C	0.527029	0.927338	0.425879
0	C	0.0492952	0.428033	0.662665
0	C	0.934069	0.427883	0.372191
0	C	0.549135	0.929025	0.663908
0	C	0.435022	0.928772	0.373592
0	C	0.930776	0.498166	0.630049
0	C	0.0532247	0.497756	0.40619
0	C	0.431349	0.999209	0.632965
0	C	0.552975	0.998865	0.404834
0	C	0.902003	0.493713	0.693178
0	C	0.0822824	0.493138	0.343414
0	C	0.403576	0.994571	0.697255
0	C	0.580401	0.994259	0.340145
0	C	0.896898	0.765692	0.667685
0	C	0.0836122	0.764296	0.365706
0	C	0.398995	0.265962	0.674448
0	C	0.584012	0.265385	0.361764
0	C	0.878745	0.69359	0.615494
0	C	0.104669	0.692827	0.420535
0	C	0.37828	0.193992	0.620943
0	C	0.606041	0.193683	0.416341
0	O	0.910604	0.81597	0.619046
0	O	0.0745182	0.815587	0.418058
0	O	0.407901	0.316611	0.621206
0	O	0.576646	0.316345	0.416204
0	O	0.738542	0.0273683	0.588551
0	O	0.245978	0.0269217	0.44911
0	O	0.238627	0.528991	0.593452
0	O	0.745312	0.528768	0.443597
0	O	0.863104	0.432278	0.689068
0	O	0.121436	0.431712	0.34811
0	O	0.365063	0.933086	0.693718
0	O	0.618876	0.932799	0.343542
0	O	0.910021	0.542682	0.749933
0	O	0.0743972	0.542	0.286612
0	O	0.412091	0.043479	0.754449
0	O	0.571653	0.0431463	0.282758
0	O	0.900579	0.781761	0.743212
0	O	0.0741736	0.779032	0.28531
0	O	0.408111	0.281508	0.754367
0	O	0.572678	0.280487	0.280097
0	H	0.848901	0.504615	0.829814
0	H	0.134816	0.498931	0.207782
0	H	0.349709	0.00169819	0.83125
0	H	0.634333	0.000814765	0.206436
0	H	0.948035	0.498969	0.96435
0	H	0.0354245	0.493773	0.0736152
0	H	0.448083	0.996956	0.966522
0	H	0.535862	0.995917	0.0713502
0	H	0.901561	0.376605	0.88665
0	H	0.0819943	0.371037	0.150392
0	H	0.403917	0.874213	0.889795
0	H	0.580589	0.873216	0.148368
0	H	0.802656	0.387967	0.84938
0	H	0.180576	0.382591	0.186729
0	H	0.304025	0.884537	0.850109
0	H	0.680238	0.883806	0.187378
0	H	0.977413	0.374179	0.0852936
0	H	0.00525004	0.368507	0.951783
0	H	0.477355	0.871164	0.0873517
0	H	0.506533	0.869886	0.95072
0	H	0.904715	0.392942	0.155557
0	H	0.0756758	0.388906	0.878958
0	H	0.402511	0.890061	0.154869
0	H	0.580055	0.88938	0.881682
0	H	0.804922	0.401472	0.0216189
0	H	0.17639	0.396537	0.0121873
0	H	0.30344	0.897767	0.0200156
0	H	0.679655	0.896876	0.0160737
0	H	0.957493	0.504079	0.129705
0	H	0.0250486	0.499971	0.907283
0	H	0.454919	0.00196664	0.129843
0	H	0.528557	0.00129059	0.907513
0	H	0.94929	0.623279	0.203834
0	H	0.0337195	0.618766	0.83369
0	H	0.443568	0.12052	0.202646
0	H	0.539914	0.119597	0.834581
0	H	0.854726	0.644588	0.174844
0	H	0.128331	0.640145	0.862781
0	H	0.347222	0.140769	0.169581
0	H	0.636238	0.139946	0.867644
0	H	0.774417	0.6502	0.974114
0	H	0.208649	0.64543	0.0635385
0	H	0.270775	0.147082	0.970502
0	H	0.712649	0.146357	0.0667094
0	H	0.946137	0.609112	0.0442636
0	H	0.0370032	0.604321	0.993585
0	H	0.443994	0.106306	0.0451241
0	H	0.539482	0.105363	0.992126
0	H	0.780554	0.640362	0.808868
0	H	0.202805	0.635355	0.228805
0	H	0.279554	0.13756	0.808638
0	H	0.703819	0.136789	0.228568
0	H	0.879013	0.617771	0.850397
0	H	0.104416	0.612824	0.187564
0	H	0.378576	0.115057	0.851718
0	H	0.604776	0.114224	0.18542
0	H	0.85182	0.75111	0.818207
0	H	0.131777	0.746135	0.220019
0	H	0.351787	0.248404	0.819952
0	H	0.631417	0.247601	0.217053
0	H	0.943299	0.732578	0.955511
0	H	0.0401989	0.727916	0.0829487
0	H	0.442331	0.229704	0.957606
0	H	0.540949	0.228837	0.0794601
0	H	0.945015	0.729163	0.102841
0	H	0.0380832	0.724203	0.935431
0	H	0.442111	0.22546	0.102908
0	H	0.541211	0.224522	0.934254
0	H	0.912859	0.789627	0.194768
0	H	0.0695913	0.784827	0.842666
0	H	0.409598	0.285987	0.194192
0	H	0.573591	0.285194	0.842842
0	H	0.804126	0.768265	0.0987392
0	H	0.178179	0.763101	0.937896
0	H	0.300864	0.264733	0.0978394
0	H	0.682264	0.26383	0.938992
0	H	0.772951	0.874308	0.996928
0	H	0.210508	0.868759	0.0409229
0	H	0.269826	0.370644	0.996023
0	H	0.713637	0.369536	0.041304
0	H	0.93523	0.847011	0.0331554
0	H	0.0480146	0.8423	0.00448935
0	H	0.433267	0.344018	0.0347486
0	H	0.54994	0.34317	0.00205541
0	H	0.715066	0.799033	0.780608
0	H	0.268407	0.794985	0.256427
0	H	0.213657	0.297115	0.780803
0	H	0.769609	0.296683	0.255952
0	H	0.720967	0.542804	0.798622
0	H	0.262258	0.537307	0.238268
0	H	0.219951	0.0380525	0.796543
0	H	0.763789	0.0372361	0.240614
0	H	0.761338	0.899161	0.823436
0	H	0.221574	0.894144	0.214783
0	H	0.2604	0.395891	0.823107
0	H	0.722497	0.394895	0.214249
0	H	0.843047	0.95233	0.782474
0	H	0.138648	0.948586	0.253241
0	H	0.344036	0.450898	0.786616
0	H	0.637949	0.450445	0.249072
0	H	0.773288	0.997391	0.915322
0	H	0.211402	0.991765	0.122903
0	H	0.268953	0.492723	0.915022
0	H	0.714918	0.491506	0.122534
0	H	0.860555	0.0241677	0.931022
0	H	0.124565	0.0198178	0.10728
0	H	0.355563	0.521983	0.930956
0	H	0.628448	0.521285	0.106499
0	H	0.918952	0.130975	0.069992
0	H	0.0688904	0.126372	0.966846
0	H	0.414545	0.628743	0.0705159
0	H	0.571341	0.627995	0.967462
0	H	0.71611	0.708464	0.816671
0	H	0.267199	0.703911	0.22192
0	H	0.214415	0.205892	0.81434
0	H	0.768889	0.205245	0.223214
0	H	0.709671	0.780005	0.882571
0	H	0.273414	0.774386	0.154488
0	H	0.207338	0.276015	0.881465
0	H	0.775923	0.274879	0.155466
0	H	0.729282	0.465689	0.86942
0	H	0.253492	0.460609	0.166471
0	H	0.228456	0.961398	0.868125
0	H	0.755255	0.960766	0.168703
0	H	0.722629	0.552545	0.908282
0	H	0.260131	0.547756	0.128328
0	H	0.219874	0.0483548	0.904645
0	H	0.763569	0.0478695	0.132297
0	H	0.940688	0.932086	0.914252
0	H	0.0415877	0.928567	0.120713
0	H	0.440811	0.431853	0.919983
0	H	0.541619	0.431232	0.115373
0	H	0.87696	0.861413	0.821071
0	H	0.104101	0.857781	0.214322
0	H	0.379769	0.360483	0.826729
0	H	0.602296	0.35998	0.2091
0	H	0.899574	0.156526	0.948984
0	H	0.0886465	0.14966	0.088591
0	H	0.39557	0.651845	0.949131
0	H	0.590038	0.65049	0.0888029
0	H	0.823375	0.176183	0.959782
0	H	0.163465	0.17288	0.0766781
0	H	0.320118	0.674959	0.960082
0	H	0.665358	0.674607	0.0780713
0	H	0.026249	0.0238063	0.624965
0	H	0.95799	0.0230614	0.41195
0	H	0.52208	0.523783	0.621455
0	H	0.462042	0.523328	0.415872
0	H	0.0440455	0.00751647	0.746809
0	H	0.940303	0.00695319	0.290158
0	H	0.542263	0.508008	0.745057
0	H	0.441769	0.507582	0.292199
0	H	0.0367458	0.891218	0.665083
0	H	0.947657	0.890564	0.371801
0	H	0.533019	0.391355	0.662683
0	H	0.451199	0.390928	0.374693
0	H	0.937687	0.912921	0.536561
0	H	0.0467694	0.912198	0.500271
0	H	0.433091	0.412951	0.535374
0	H	0.551172	0.412543	0.501915
0	H	0.977703	0.885663	0.75605
0	H	0.00644983	0.885235	0.280538
0	H	0.477419	0.386775	0.757879
0	H	0.506553	0.386381	0.279231
0	H	0.823861	0.908278	0.646866
0	H	0.160361	0.90806	0.389639
0	H	0.324029	0.409703	0.652335
0	H	0.659914	0.409493	0.384515
0	H	0.806201	0.927387	0.526474
0	H	0.178073	0.926768	0.510156
0	H	0.30405	0.428158	0.530194
0	H	0.68002	0.427887	0.506756
0	H	0.928191	0.0121562	0.746511
0	H	0.0561794	0.0120724	0.290574
0	H	0.428423	0.513636	0.749014
0	H	0.55544	0.513392	0.288001
0	H	0.857981	0.143223	0.738868
0	H	0.126811	0.142927	0.29895
0	H	0.359228	0.644918	0.742455
0	H	0.624412	0.644587	0.29429
0	H	0.758949	0.163042	0.608991
0	H	0.225713	0.16268	0.429049
0	H	0.259388	0.664526	0.613496
0	H	0.724328	0.664303	0.423105
0	H	0.818943	0.171013	0.521561
0	H	0.165316	0.170572	0.515923
0	H	0.316844	0.67227	0.522921
0	H	0.667146	0.67191	0.514073
0	H	0.984825	0.121267	0.749131
0	H	0.999543	0.120825	0.288131
0	H	0.484405	0.622488	0.748874
0	H	0.499445	0.62214	0.28825
0	H	0.964368	0.15674	0.547571
0	H	0.0199706	0.156367	0.489687
0	H	0.458846	0.657947	0.543522
0	H	0.52527	0.657594	0.4938
0	H	0.0574951	0.134988	0.682938
0	H	0.926871	0.13446	0.354382
0	H	0.553515	0.635114	0.677047
0	H	0.43054	0.634776	0.360331
0	H	0.0446715	0.268121	0.637785
0	H	0.939389	0.267626	0.39901
0	H	0.541953	0.768396	0.634349
0	H	0.442121	0.768054	0.403008
0	H	0.0582025	0.250954	0.75573
0	H	0.926091	0.250318	0.281267
0	H	0.557383	0.750922	0.753592
0	H	0.42667	0.750592	0.283762
0	H	0.942849	0.243701	0.749551
0	H	0.0415799	0.243158	0.287815
0	H	0.443279	0.744583	0.750739
0	H	0.540508	0.744313	0.286367
0	H	0.831567	0.305701	0.707906
0	H	0.152688	0.305132	0.329329
0	H	0.332597	0.806579	0.71122
0	H	0.650976	0.806318	0.325504
0	H	0.761778	0.288617	0.56477
0	H	0.222596	0.288177	0.472599
0	H	0.262015	0.79023	0.567787
0	H	0.721841	0.789844	0.468971
0	H	0.803883	0.395348	0.532954
0	H	0.180202	0.394934	0.504136
0	H	0.304213	0.897186	0.536608
0	H	0.679934	0.896749	0.500677
0	H	0.989818	0.363531	0.745444
0	H	0.994599	0.362791	0.291267
0	H	0.490509	0.863766	0.746962
0	H	0.493534	0.863489	0.29051
0	H	0.905159	0.302284	0.45936
0	H	0.0785566	0.301936	0.577362
0	H	0.402291	0.805114	0.458797
0	H	0.581745	0.804033	0.578664
0	H	0.881466	0.0761186	0.453061
0	H	0.102415	0.0747576	0.584042
0	H	0.376535	0.576064	0.451591
0	H	0.607221	0.574985	0.585599
0	H	0.916911	0.420941	0.518773
0	H	0.0661985	0.420718	0.517004
0	H	0.416561	0.922458	0.520564
0	H	0.567568	0.921991	0.516993
0	H	0.877217	0.522778	0.548209
0	H	0.106721	0.522287	0.488129
0	H	0.377341	0.0238571	0.551442
0	H	0.607198	0.023313	0.486411
0	H	0.982548	0.538402	0.670727
0	H	0.0015368	0.538091	0.365352
0	H	0.483064	0.0394364	0.673127
0	H	0.501427	0.0392264	0.36507
0	H	0.812307	0.68916	0.537365
0	H	0.171294	0.690179	0.498589
0	H	0.311351	0.190577	0.543773
0	H	0.673115	0.190967	0.493255
0	H	0.0623836	0.473272	0.632216
0	H	0.920855	0.472902	0.402815
0	H	0.562203	0.974489	0.633746
0	H	0.422062	0.974098	0.404074
0	H	0.815356	0.314381	0.445523
0	H	0.168412	0.314602	0.59146
0	H	0.31333	0.816408	0.446979
0	H	0.670558	0.816352	0.590359
0	H	0.851894	0.226569	0.455436
0	H	0.132524	0.226556	0.58188
0	H	0.349417	0.72891	0.454524
0	H	0.635291	0.72849	0.582778
0	H	0.838959	0.992679	0.450011
0	H	0.145875	0.991975	0.587013
0	H	0.334735	0.492866	0.45064
0	H	0.650166	0.492561	0.58654
0	H	0.795643	0.0745013	0.44821
0	H	0.188307	0.0744727	0.589013
0	H	0.292174	0.574844	0.449737
0	H	0.691515	0.575319	0.587313
0	H	0.0663809	0.3777	0.645333
0	H	0.916403	0.377425	0.388415
0	H	0.565828	0.878876	0.645696
0	H	0.418151	0.878532	0.391389
0	H	0.0929505	0.433884	0.752639
0	H	0.890939	0.434357	0.282348
0	H	0.593092	0.93433	0.753987
0	H	0.391148	0.934418	0.283566
0	H	0.888556	0.649849	0.669847
0	H	0.0960447	0.648701	0.36745
0	H	0.388141	0.150269	0.675387
0	H	0.596414	0.149807	0.362238
0	H	0.917908	0.682208	0.595137
0	H	0.0662446	0.680617	0.441814
0	H	0.415997	0.181644	0.598643
0	H	0.568852	0.181009	0.43935
