#******************************************
#
# CIF file created by Zeo++
# Zeo++ is an open source package to
# analyze microporous materials
#
#*******************************************

_cell_length_a		12.8943(0)
_cell_length_b		22.306(0)
_cell_length_c		22.3671(0)
_cell_angle_alpha		90(0)
_cell_angle_beta		96.1326(0)
_cell_angle_gamma		90(0)

_symmetry_space_group_name_H-M		'P1'
_symmetry_Int_Tables_number		1
_symmetry_cell_setting		Monoclinic

loop_
_symmetry_equiv_pos_as_xyz
'+x,+y,+z'

loop_
_atom_site_label
_atom_site_type_symbol
_atom_site_fract_x
_atom_site_fract_y
_atom_site_fract_z
0	Si	0.779258	0.212453	0.215583
0	Si	0.742334	0.707831	0.283493
0	Si	0.284067	0.766679	0.78501
0	Si	0.321212	0.271981	0.717065
0	H	0.685953	0.242376	0.176468
0	H	0.835399	0.739583	0.321096
0	H	0.377213	0.736572	0.824062
0	H	0.227984	0.240368	0.679452
0	Si	0.81663	0.12597	0.169753
0	Si	0.711158	0.621167	0.330114
0	Si	0.246891	0.853267	0.830797
0	Si	0.352148	0.358621	0.670398
0	H	0.777524	0.0724916	0.206689
0	H	0.751727	0.568949	0.292018
0	H	0.286644	0.906467	0.793695
0	H	0.311825	0.410966	0.708495
0	Si	0.981815	0.147216	0.205145
0	Si	0.545005	0.640337	0.296565
0	Si	0.0816587	0.832217	0.795346
0	Si	0.518404	0.339412	0.70387
0	H	0.968717	0.140682	0.274001
0	H	0.557169	0.634578	0.227396
0	H	0.0947878	0.838716	0.726493
0	H	0.506285	0.345215	0.773064
0	Si	0.929217	0.240992	0.181846
0	Si	0.593128	0.734495	0.319008
0	Si	0.134017	0.738389	0.818684
0	Si	0.470231	0.245224	0.681509
0	H	0.896456	0.232276	0.112134
0	H	0.630344	0.726193	0.388147
0	H	0.166801	0.7471	0.888392
0	H	0.432884	0.253496	0.612293
0	Si	0.722574	0.213223	0.307749
0	Si	0.79652	0.706405	0.190458
0	Si	0.340708	0.766145	0.69281
0	Si	0.266786	0.273296	0.810037
0	Si	0.745433	0.102509	0.0767001
0	Si	0.78951	0.598914	0.421557
0	Si	0.317928	0.876917	0.923807
0	Si	0.273851	0.380704	0.578935
0	Si	0.124996	0.0921576	0.215796
0	Si	0.403108	0.584967	0.286648
0	Si	0.938486	0.887316	0.784679
0	Si	0.660227	0.394698	0.713888
0	Si	0.988272	0.331458	0.165786
0	Si	0.53212	0.824047	0.336229
0	Si	0.0749228	0.647942	0.83473
0	Si	0.531098	0.155661	0.664309
0	C	0.592461	0.262766	0.301569
0	C	0.927685	0.754749	0.195163
0	C	0.470783	0.716577	0.698919
0	C	0.135602	0.224949	0.805207
0	C	0.607274	0.323097	0.269951
0	C	0.916372	0.815469	0.226717
0	C	0.455971	0.656232	0.730511
0	C	0.14696	0.164257	0.7736
0	H	0.625299	0.31792	0.223465
0	H	0.900792	0.810846	0.273675
0	H	0.438153	0.661393	0.777038
0	H	0.162692	0.168924	0.726675
0	H	0.668439	0.350869	0.293837
0	H	0.854931	0.843561	0.203727
0	H	0.394657	0.628525	0.706689
0	H	0.208272	0.136094	0.796611
0	H	0.535198	0.349754	0.267736
0	H	0.988831	0.841516	0.227549
0	H	0.52796	0.629507	0.732607
0	H	0.0744421	0.138259	0.772659
0	C	0.560683	0.276118	0.364743
0	C	0.957156	0.767236	0.131356
0	C	0.502474	0.703232	0.63572
0	C	0.10597	0.21238	0.868965
0	H	0.538627	0.235003	0.387487
0	H	0.977678	0.725902	0.108519
0	H	0.524713	0.744325	0.613011
0	H	0.0854639	0.253678	0.891865
0	H	0.492943	0.30619	0.362014
0	H	0.0250711	0.796956	0.13261
0	H	0.570054	0.673043	0.638405
0	H	0.0379952	0.182698	0.867609
0	H	0.623246	0.298105	0.394139
0	H	0.894101	0.789401	0.102562
0	H	0.439795	0.681369	0.606312
0	H	0.168927	0.190132	0.89776
0	C	0.501666	0.22927	0.265599
0	C	0.0180358	0.720347	0.230478
0	C	0.561588	0.750072	0.734885
0	C	0.045244	0.259332	0.769872
0	H	0.485399	0.185851	0.285872
0	H	0.0310582	0.676132	0.210918
0	H	0.57795	0.793456	0.714561
0	H	0.0321559	0.303526	0.78944
0	H	0.515318	0.221097	0.218744
0	H	0.00604908	0.713318	0.277768
0	H	0.547855	0.758333	0.781714
0	H	0.0572483	0.266363	0.722589
0	H	0.42934	0.255538	0.264125
0	H	0.0915105	0.745247	0.230573
0	H	0.633859	0.723749	0.736435
0	H	0.971803	0.234405	0.769748
0	C	0.689051	0.130356	0.333328
0	C	0.827245	0.622934	0.164933
0	C	0.37424	0.849027	0.667214
0	C	0.236006	0.356765	0.835603
0	C	0.625205	0.132013	0.387828
0	C	0.89024	0.623782	0.110071
0	C	0.438272	0.847352	0.61279
0	C	0.173003	0.355865	0.890448
0	H	0.554263	0.159487	0.379571
0	H	0.962548	0.650045	0.118175
0	H	0.509155	0.819832	0.621113
0	H	0.100759	0.329551	0.882342
0	H	0.670923	0.149589	0.428401
0	H	0.845289	0.64193	0.0696739
0	H	0.39265	0.829811	0.572177
0	H	0.218007	0.337721	0.930843
0	H	0.600502	0.086692	0.399115
0	H	0.912853	0.57814	0.0985466
0	H	0.463103	0.892658	0.601552
0	H	0.150259	0.401471	0.902004
0	C	0.625623	0.0956275	0.282215
0	C	0.89091	0.58719	0.215108
0	C	0.437512	0.883858	0.718305
0	C	0.17231	0.392463	0.78539
0	H	0.568424	0.123518	0.255132
0	H	0.956638	0.612713	0.237512
0	H	0.496233	0.856273	0.744602
0	H	0.106946	0.366814	0.762775
0	H	0.58141	0.0588464	0.300119
0	H	0.924179	0.546365	0.197154
0	H	0.479883	0.921442	0.700446
0	H	0.1385	0.433116	0.803365
0	H	0.676174	0.0745445	0.251297
0	H	0.842145	0.571491	0.249924
0	H	0.386985	0.903886	0.749911
0	H	0.221143	0.408427	0.750721
0	C	0.791025	0.0959115	0.352144
0	C	0.724019	0.589478	0.146828
0	C	0.272274	0.883426	0.648296
0	C	0.339196	0.390265	0.853695
0	H	0.840627	0.118696	0.388212
0	H	0.676239	0.611434	0.109529
0	H	0.222925	0.860673	0.612116
0	H	0.387335	0.368127	0.890731
0	H	0.838208	0.0890048	0.314765
0	H	0.675664	0.584888	0.183993
0	H	0.224852	0.890233	0.685582
0	H	0.387213	0.395197	0.816409
0	H	0.774054	0.0512061	0.369153
0	H	0.739435	0.543806	0.131746
0	H	0.28925	0.928164	0.631383
0	H	0.323746	0.435808	0.869125
0	C	0.823797	0.248693	0.371447
0	C	0.693503	0.742284	0.128068
0	C	0.23942	0.730765	0.629104
0	C	0.369627	0.237309	0.872455
0	C	0.824786	0.317161	0.363873
0	C	0.696504	0.81094	0.134309
0	C	0.238422	0.662288	0.636615
0	C	0.366635	0.168664	0.866079
0	H	0.838399	0.330709	0.31781
0	H	0.68515	0.825881	0.180238
0	H	0.224701	0.648694	0.682645
0	H	0.378024	0.153821	0.82012
0	H	0.887446	0.337524	0.394357
0	H	0.63401	0.8317	0.103996
0	H	0.175813	0.64196	0.606073
0	H	0.429115	0.147834	0.896361
0	H	0.751241	0.337892	0.373963
0	H	0.770354	0.83004	0.12282
0	H	0.311982	0.641559	0.626553
0	H	0.292767	0.149535	0.877498
0	C	0.795049	0.235235	0.435207
0	C	0.717566	0.726803	0.0638729
0	C	0.268136	0.744262	0.565344
0	C	0.345417	0.252691	0.936647
0	H	0.788763	0.186956	0.444023
0	H	0.719303	0.678298	0.0556566
0	H	0.274644	0.792541	0.55659
0	H	0.343677	0.301187	0.94494
0	H	0.72055	0.255972	0.443469
0	H	0.792605	0.7453	0.0537035
0	H	0.342509	0.723416	0.557017
0	H	0.270321	0.234199	0.946722
0	H	0.854416	0.25333	0.469268
0	H	0.657977	0.745792	0.0303824
0	H	0.208647	0.7263	0.53128
0	H	0.404931	0.233636	0.97015
0	C	0.934797	0.225201	0.36619
0	C	0.582149	0.720946	0.135922
0	C	0.128414	0.754222	0.634405
0	C	0.481016	0.258672	0.864708
0	H	0.937819	0.176526	0.359436
0	H	0.57681	0.672754	0.144858
0	H	0.125371	0.802857	0.641443
0	H	0.486367	0.306898	0.855975
0	H	0.986311	0.234796	0.407399
0	H	0.529374	0.729647	0.0949771
0	H	0.0769823	0.744858	0.59311
0	H	0.533774	0.249802	0.90563
0	H	0.970976	0.247292	0.329515
0	H	0.548526	0.745288	0.172225
0	H	0.0921229	0.731917	0.670921
0	H	0.514622	0.23446	0.828315
0	C	0.686941	0.0199075	0.0835455
0	C	0.847222	0.516426	0.414549
0	C	0.37643	0.959512	0.916926
0	C	0.216045	0.463182	0.585843
0	C	0.75989	0.979337	0.124925
0	C	0.769072	0.475473	0.376965
0	C	0.303495	1.72644e-05	0.875467
0	C	0.294149	0.504257	0.623295
0	H	0.765082	0.992853	0.172357
0	H	0.757235	0.488005	0.329269
0	H	0.298579	0.98655	0.828037
0	H	0.30673	0.491551	0.67092
0	H	0.839458	0.977429	0.111949
0	H	0.692135	0.473929	0.393665
0	H	0.22383	0.00180929	0.888312
0	H	0.370753	0.506151	0.606237
0	H	0.730421	0.933126	0.123371
0	H	0.798071	0.429154	0.378129
0	H	0.332797	0.0462682	0.8771
0	H	0.264696	0.550468	0.622447
0	C	0.669927	0.989562	0.0214887
0	C	0.872085	0.487096	0.476816
0	C	0.393327	0.989907	0.978959
0	C	0.191008	0.492372	0.523537
0	H	0.620686	0.0160171	0.988373
0	H	0.931147	0.511802	0.505871
0	H	0.442323	0.963411	0.0121617
0	H	0.131902	0.467596	0.494594
0	H	0.630636	0.945994	0.0245505
0	H	0.902526	0.441537	0.472155
0	H	0.43283	0.0334124	0.975918
0	H	0.160535	0.537926	0.528098
0	H	0.744148	0.980595	0.00293265
0	H	0.801928	0.482851	0.500698
0	H	0.319041	0.999	0.997398
0	H	0.261041	0.49658	0.499565
0	C	0.581515	0.0235834	0.109893
0	C	0.948454	0.51919	0.38374
0	C	0.481903	0.955827	0.890634
0	C	0.114904	0.460388	0.616715
0	H	0.587619	0.0445527	0.154436
0	H	0.937107	0.538972	0.338628
0	H	0.47584	0.934935	0.84606
0	H	0.126396	0.440597	0.661811
0	H	0.549608	0.978505	0.115184
0	H	0.979804	0.473945	0.378361
0	H	0.513896	0.000898294	0.885434
0	H	0.0834736	0.5056	0.622126
0	H	0.523015	0.0486515	0.0804001
0	H	0.00969422	0.545053	0.410502
0	H	0.540315	0.930681	0.920117
0	H	0.0536548	0.434495	0.590015
0	C	0.629588	0.158187	0.0476493
0	C	0.905851	0.655247	0.446821
0	C	0.433731	0.821232	0.952905
0	C	0.157622	0.324302	0.553737
0	C	0.67506	0.216106	0.0234125
0	C	0.862086	0.712566	0.473224
0	C	0.388214	0.763348	0.977188
0	C	0.20135	0.266974	0.527342
0	H	0.722426	0.20718	0.986299
0	H	0.819182	0.702921	0.512138
0	H	0.340739	0.772332	0.014245
0	H	0.244032	0.276603	0.488335
0	H	0.723069	0.241571	0.0582839
0	H	0.809967	0.73781	0.440051
0	H	0.340269	0.737848	0.94232
0	H	0.253636	0.241796	0.560469
0	H	0.612259	0.246445	0.0054736
0	H	0.925378	0.74333	0.489328
0	H	0.450963	0.73302	0.995207
0	H	0.138077	0.236164	0.51135
0	C	0.558547	0.128674	0.996228
0	C	0.982581	0.625479	0.495539
0	C	0.504798	0.850798	0.00428845
0	C	0.0808356	0.354009	0.50502
0	H	0.51708	0.0891512	0.0113357
0	H	0.0203715	0.585879	0.477885
0	H	0.546567	0.890156	0.989062
0	H	0.0429488	0.393564	0.522658
0	H	0.600947	0.114681	0.958698
0	H	0.945115	0.611375	0.534991
0	H	0.462329	0.865066	0.0416968
0	H	0.118213	0.368117	0.465552
0	H	0.498068	0.160273	0.977136
0	H	0.0448466	0.656777	0.511953
0	H	0.565017	0.81913	0.0235729
0	H	0.0186457	0.32267	0.488629
0	C	0.561495	0.175639	0.0973837
0	C	0.967332	0.673355	0.3943
0	C	0.501769	0.803712	0.903169
0	C	0.0961296	0.306189	0.606245
0	H	0.600191	0.209133	0.12878
0	H	0.925533	0.7079	0.365365
0	H	0.463098	0.770147	0.87186
0	H	0.137906	0.271628	0.635162
0	H	0.539371	0.13743	0.123963
0	H	0.984629	0.63562	0.365643
0	H	0.523803	0.841875	0.876491
0	H	0.0789225	0.343929	0.634922
0	H	0.488692	0.196656	0.0778731
0	H	0.0426124	0.693434	0.410982
0	H	0.574618	0.782751	0.922692
0	H	0.0208221	0.286148	0.589576
0	C	0.848057	0.101666	0.0159868
0	C	0.691463	0.598608	0.484386
0	C	0.215244	0.877818	0.984482
0	C	0.371883	0.38093	0.51609
0	C	0.793209	0.103523	0.951216
0	C	0.750676	0.600764	0.547959
0	C	0.270042	0.875928	0.0492632
0	C	0.312609	0.378716	0.452541
0	H	0.753718	0.14667	0.941228
0	H	0.792881	0.643485	0.556016
0	H	0.309177	0.832686	0.0593003
0	H	0.270612	0.335942	0.444491
0	H	0.735246	0.067938	0.942071
0	H	0.807285	0.564229	0.556199
0	H	0.328295	0.911368	0.0583859
0	H	0.25581	0.415144	0.44433
0	H	0.849977	0.0981633	0.918343
0	H	0.696352	0.597084	0.58236
0	H	0.213275	0.88149	0.0821092
0	H	0.366809	0.382495	0.418095
0	C	0.921831	0.155964	0.0236406
0	C	0.616704	0.652658	0.477646
0	C	0.141402	0.823556	0.976806
0	C	0.446648	0.326888	0.522824
0	H	0.882791	0.198004	0.033522
0	H	0.653619	0.69443	0.46417
0	H	0.180442	0.781468	0.967084
0	H	0.409775	0.285114	0.536344
0	H	0.959712	0.163863	0.98265
0	H	0.58515	0.662509	0.520266
0	H	0.103272	0.815765	0.017728
0	H	0.478144	0.317009	0.480196
0	H	0.986475	0.148948	0.0596606
0	H	0.548382	0.644037	0.444616
0	H	0.0769367	0.830537	0.94068
0	H	0.514992	0.335529	0.555836
0	C	0.913464	0.0438832	0.0233044
0	C	0.626708	0.540513	0.47818
0	C	0.149887	0.93562	0.977146
0	C	0.43665	0.439023	0.522192
0	H	0.86762	0.00424838	0.00699955
0	H	0.674711	0.500841	0.491618
0	H	0.19572	0.975228	0.993554
0	H	0.388518	0.478713	0.509032
0	H	0.944532	0.0350271	0.0702882
0	H	0.590362	0.532955	0.431872
0	H	0.119021	0.944535	0.930141
0	H	0.473533	0.446453	0.568391
0	H	0.980935	0.0463942	0.997395
0	H	0.563286	0.541817	0.507259
0	H	0.0822803	0.933098	0.0029459
0	H	0.499663	0.437803	0.492828
0	C	0.0820421	0.00693591	0.225195
0	C	0.445716	0.499858	0.277422
0	C	0.981416	0.972545	0.775286
0	C	0.617696	0.479813	0.723198
0	C	0.993293	0.999945	0.265614
0	C	0.532617	0.492755	0.235784
0	C	0.0702244	0.979514	0.734906
0	C	0.53101	0.48693	0.764984
0	H	0.0121916	0.0203658	0.310118
0	H	0.511281	0.512623	0.191208
0	H	0.0512898	0.959165	0.690367
0	H	0.552504	0.467002	0.809515
0	H	0.978176	0.952264	0.273572
0	H	0.547933	0.445064	0.228051
0	H	0.0854806	0.0271913	0.727017
0	H	0.515829	0.534623	0.772778
0	H	0.919018	0.0184493	0.245454
0	H	0.60722	0.511883	0.254634
0	H	0.14443	0.960912	0.755059
0	H	0.456308	0.467866	0.746238
0	C	0.0452163	0.980507	0.162938
0	C	0.485034	0.473987	0.339563
0	C	0.01813	0.999006	0.837544
0	C	0.578069	0.505646	0.661079
0	H	0.108535	0.977938	0.133792
0	H	0.423883	0.473483	0.370265
0	H	0.954668	0.0017252	0.866576
0	H	0.638982	0.506052	0.630217
0	H	0.980995	0.0062799	0.138401
0	H	0.552196	0.498802	0.362126
0	H	0.0821321	0.973148	0.862193
0	H	0.510753	0.480873	0.638679
0	H	0.0161445	0.934625	0.16733
0	H	0.510854	0.427377	0.335442
0	H	0.0474566	0.0448277	0.83314
0	H	0.552379	0.552278	0.665226
0	C	0.175923	0.970136	0.253519
0	C	0.351197	0.462754	0.250447
0	C	0.887565	0.00932392	0.746896
0	C	0.712349	0.516922	0.750017
0	H	0.236498	0.965416	0.222718
0	H	0.292905	0.45691	0.282427
0	H	0.826861	0.0140085	0.777611
0	H	0.770233	0.522966	0.717812
0	H	0.152261	0.924512	0.264326
0	H	0.37513	0.417592	0.238231
0	H	0.911239	0.0549572	0.736137
0	H	0.688441	0.561998	0.762523
0	H	0.212542	0.990091	0.295557
0	H	0.311597	0.483111	0.209395
0	H	0.851099	0.989388	0.704815
0	H	0.752474	0.496425	0.790855
0	C	0.220658	0.0955709	0.151862
0	C	0.309772	0.58835	0.351557
0	C	0.842731	0.883888	0.848563
0	C	0.753509	0.391347	0.648921
0	C	0.157838	0.0920247	0.0894842
0	C	0.375784	0.587058	0.413147
0	C	0.905461	0.887363	0.910976
0	C	0.687301	0.392692	0.58739
0	H	0.0927133	0.12438	0.0834664
0	H	0.438002	0.621317	0.417902
0	H	0.97037	0.854871	0.91704
0	H	0.625354	0.358266	0.582611
0	H	0.12523	0.0471534	0.0799577
0	H	0.412668	0.543172	0.422497
0	H	0.938319	0.932168	0.920526
0	H	0.650001	0.436515	0.578245
0	H	0.207755	0.101811	0.0538966
0	H	0.326721	0.595544	0.449485
0	H	0.85538	0.877695	0.946514
0	H	0.736266	0.384483	0.550936
0	C	0.300695	0.0440416	0.156523
0	C	0.232175	0.5357	0.349402
0	C	0.762757	0.935446	0.843902
0	C	0.831125	0.44401	0.651071
0	H	0.346906	0.0448178	0.118089
0	H	0.186429	0.537393	0.388051
0	H	0.716261	0.934555	0.882208
0	H	0.876577	0.442454	0.612283
0	H	0.26337	0.99966	0.156565
0	H	0.271434	0.49183	0.351077
0	H	0.800171	0.979814	0.844091
0	H	0.791857	0.487884	0.649633
0	H	0.35596	0.0473394	0.197198
0	H	0.17626	0.536564	0.308839
0	H	0.707734	0.932297	0.803117
0	H	0.887311	0.443016	0.691529
0	C	0.280911	0.155232	0.156658
0	C	0.24645	0.646913	0.346313
0	C	0.782412	0.824255	0.843697
0	C	0.816822	0.332769	0.654057
0	H	0.22853	0.194389	0.152368
0	H	0.296896	0.68691	0.349315
0	H	0.834721	0.785072	0.848098
0	H	0.766357	0.292781	0.651194
0	H	0.332208	0.159146	0.120715
0	H	0.196219	0.650561	0.382821
0	H	0.73089	0.820389	0.879531
0	H	0.866783	0.329089	0.61741
0	H	0.331571	0.159078	0.199279
0	H	0.194457	0.649318	0.304028
0	H	0.731952	0.820407	0.801005
0	H	0.86907	0.330388	0.696263
0	C	0.200336	0.120977	0.293134
0	C	0.326541	0.613846	0.209618
0	C	0.863239	0.858501	0.707317
0	C	0.736832	0.365727	0.790874
0	C	0.206181	0.189948	0.294771
0	C	0.319413	0.682801	0.208072
0	C	0.857321	0.789535	0.705672
0	C	0.743936	0.29677	0.792336
0	H	0.225619	0.21012	0.252387
0	H	0.298962	0.702632	0.250416
0	H	0.837445	0.769375	0.747967
0	H	0.764123	0.276986	0.749911
0	H	0.266654	0.205134	0.329763
0	H	0.259031	0.697676	0.172834
0	H	0.797111	0.774382	0.670509
0	H	0.804488	0.281858	0.827463
0	H	0.133294	0.210726	0.305618
0	H	0.392072	0.704058	0.197528
0	H	0.930293	0.768702	0.695039
0	H	0.671329	0.275527	0.802971
0	C	0.145516	0.100355	0.347537
0	C	0.381351	0.593833	0.154984
0	C	0.918151	0.879093	0.652929
0	C	0.682117	0.38569	0.845562
0	H	0.129511	0.0519537	0.346928
0	H	0.399038	0.5456	0.15553
0	H	0.934669	0.927439	0.653673
0	H	0.664432	0.433923	0.845075
0	H	0.0711388	0.12363	0.350428
0	H	0.454974	0.617978	0.151933
0	H	0.992262	0.855572	0.649914
0	H	0.608518	0.361552	0.848642
0	H	0.194317	0.109842	0.389726
0	H	0.331966	0.602936	0.112911
0	H	0.869188	0.869877	0.610736
0	H	0.731604	0.376546	0.887597
0	C	0.311847	0.0953529	0.299894
0	C	0.215294	0.5879	0.203166
0	C	0.751739	0.884137	0.700497
0	C	0.848101	0.391676	0.797293
0	H	0.35623	0.109271	0.262838
0	H	0.171113	0.601867	0.240298
0	H	0.707234	0.870173	0.737483
0	H	0.89216	0.377841	0.760063
0	H	0.311936	0.0460933	0.301705
0	H	0.215443	0.538622	0.201477
0	H	0.751658	0.9334	0.698737
0	H	0.847938	0.440953	0.799161
0	H	0.355956	0.110932	0.341655
0	H	0.170743	0.603273	0.16144
0	H	0.707723	0.868611	0.658689
0	H	0.89276	0.376154	0.838929
0	C	0.12876	0.325108	0.137264
0	C	0.392008	0.817555	0.365014
0	C	0.934415	0.654317	0.863218
0	C	0.671185	0.162082	0.635477
0	C	0.132853	0.275273	0.0899498
0	C	0.389037	0.76785	0.41258
0	C	0.930284	0.704161	0.910522
0	C	0.674132	0.211842	0.587965
0	H	0.205227	0.278294	0.0682684
0	H	0.315723	0.769788	0.433428
0	H	0.857861	0.701156	0.932157
0	H	0.747329	0.20987	0.567011
0	H	0.0689823	0.277942	0.0535055
0	H	0.451806	0.771773	0.449599
0	H	0.994113	0.701479	0.946997
0	H	0.611229	0.208034	0.551016
0	H	0.132484	0.23006	0.10978
0	H	0.392443	0.722584	0.39315
0	H	0.930713	0.749364	0.890677
0	H	0.670943	0.257081	0.607492
0	C	0.158241	0.384857	0.10899
0	C	0.361937	0.877321	0.393039
0	C	0.904891	0.594575	0.891484
0	C	0.701115	0.102339	0.607354
0	H	0.171596	0.420471	0.143083
0	H	0.347426	0.912602	0.358672
0	H	0.891794	0.558922	0.857419
0	H	0.715697	0.0670152	0.641672
0	H	0.0977823	0.400823	0.0742266
0	H	0.422556	0.893874	0.427459
0	H	0.965215	0.578675	0.92636
0	H	0.640356	0.0858348	0.572991
0	H	0.230599	0.380434	0.0877059
0	H	0.290014	0.872508	0.414687
0	H	0.83237	0.598969	0.912615
0	H	0.772932	0.107177	0.585611
0	C	0.210728	0.311098	0.190643
0	C	0.309615	0.803044	0.311976
0	C	0.852517	0.668329	0.809809
0	C	0.753706	0.176474	0.688495
0	H	0.200509	0.26602	0.209609
0	H	0.319469	0.757649	0.29362
0	H	0.862886	0.713351	0.790757
0	H	0.743779	0.221779	0.707041
0	H	0.209512	0.343529	0.227602
0	H	0.310695	0.834923	0.274512
0	H	0.853648	0.635828	0.772907
0	H	0.7528	0.144427	0.725825
0	H	0.28963	0.3122	0.176466
0	H	0.230882	0.804573	0.326393
0	H	0.773602	0.667346	0.82397
0	H	0.832364	0.175096	0.673975
0	C	0.888251	0.364064	0.0987436
0	C	0.632596	0.855995	0.40331
0	C	0.174907	0.615302	0.901777
0	C	0.430551	0.123718	0.597254
0	C	0.908648	0.431716	0.0926484
0	C	0.611311	0.923391	0.410711
0	C	0.154445	0.547651	0.90782
0	C	0.451734	0.0563146	0.589819
0	H	0.856129	0.451345	0.0560209
0	H	0.665078	0.942719	0.44692
0	H	0.206961	0.527971	0.944418
0	H	0.39797	0.0370371	0.553577
0	H	0.988668	0.440808	0.0822099
0	H	0.531849	0.931695	0.422594
0	H	0.0744281	0.538579	0.918268
0	H	0.531211	0.0479747	0.577963
0	H	0.89614	0.456583	0.133739
0	H	0.621106	0.949023	0.369691
0	H	0.166889	0.522815	0.866704
0	H	0.441849	0.0306589	0.630815
0	C	0.773644	0.355012	0.110465
0	C	0.747078	0.847998	0.390782
0	C	0.289534	0.624336	0.890088
0	C	0.3161	0.131745	0.609828
0	H	0.74634	0.308809	0.101004
0	H	0.776009	0.802091	0.400317
0	H	0.316952	0.670485	0.899748
0	H	0.287155	0.17765	0.600277
0	H	0.721698	0.383623	0.0805947
0	H	0.798629	0.877293	0.420136
0	H	0.341408	0.595564	0.919825
0	H	0.264496	0.102444	0.580514
0	H	0.759144	0.366639	0.156498
0	H	0.760339	0.859513	0.344516
0	H	0.303993	0.612901	0.844002
0	H	0.302889	0.120261	0.656113
0	C	0.903698	0.333711	0.0384689
0	C	0.619128	0.824447	0.4633
0	C	0.159424	0.645634	0.962057
0	C	0.44401	0.155263	0.53726
0	H	0.984279	0.337811	0.0271668
0	H	0.538953	0.827868	0.475542
0	H	0.0787575	0.641694	0.973257
0	H	0.524183	0.151826	0.525015
0	H	0.853257	0.354376	0.001438
0	H	0.670279	0.844578	0.500263
0	H	0.209623	0.624829	0.99911
0	H	0.392834	0.135156	0.500298
0	H	0.884011	0.285723	0.037963
0	H	0.639124	0.776439	0.462702
0	H	0.179423	0.69358	0.962644
0	H	0.424045	0.203282	0.537873
0	C	0.995262	0.387732	0.234779
0	C	0.524987	0.880334	0.267378
0	C	0.0679686	0.591701	0.765717
0	C	0.538244	0.0993028	0.733101
0	C	0.0566221	0.445332	0.224336
0	C	0.46542	0.938329	0.278947
0	C	0.00661184	0.534092	0.776128
0	C	0.597907	0.0413386	0.72151
0	H	0.0129202	0.475646	0.192046
0	H	0.509404	0.966815	0.312834
0	H	0.0503703	0.503712	0.808332
0	H	0.554033	0.0128895	0.687549
0	H	0.132353	0.436288	0.207683
0	H	0.388524	0.929707	0.29436
0	H	0.930932	0.543115	0.792854
0	H	0.674844	0.0500127	0.706179
0	H	0.0728239	0.470716	0.266363
0	H	0.451908	0.965015	0.237618
0	H	0.990296	0.508776	0.734069
0	H	0.611312	0.0146017	0.762817
0	C	0.0487659	0.356148	0.291156
0	C	0.469534	0.849606	0.211044
0	C	0.0144684	0.62329	0.709337
0	C	0.593611	0.129983	0.789496
0	H	0.0129139	0.312782	0.300749
0	H	0.50408	0.80596	0.200818
0	H	0.0502815	0.666677	0.699763
0	H	0.558834	0.173527	0.799842
0	H	0.0440673	0.383922	0.331366
0	H	0.47436	0.87765	0.171055
0	H	0.0192264	0.595539	0.669122
0	H	0.588951	0.101795	0.829407
0	H	0.132148	0.348176	0.287576
0	H	0.386136	0.842258	0.215067
0	H	0.931071	0.631223	0.712895
0	H	0.676962	0.137486	0.785466
0	C	0.883977	0.406254	0.245924
0	C	0.636332	0.897953	0.255306
0	C	0.179242	0.573176	0.754561
0	C	0.426918	0.0815723	0.745125
0	H	0.838525	0.368131	0.260786
0	H	0.679747	0.859854	0.238574
0	H	0.224704	0.611295	0.739699
0	H	0.383375	0.119602	0.761893
0	H	0.840067	0.425901	0.205805
0	H	0.682745	0.915814	0.295467
0	H	0.223155	0.553505	0.794669
0	H	0.380607	0.0637143	0.704927
0	H	0.885946	0.440332	0.281541
0	H	0.63428	0.933075	0.220749
0	H	0.177256	0.539105	0.71894
0	H	0.429044	0.0463918	0.779632
