#******************************************
#
# CIF file created by Zeo++
# Zeo++ is an open source package to
# analyze microporous materials
#
#*******************************************

_cell_length_a		30.7895(0)
_cell_length_b		22.8455(0)
_cell_length_c		9.15762(0)
_cell_angle_alpha		90(0)
_cell_angle_beta		90(0)
_cell_angle_gamma		90(0)

_symmetry_space_group_name_H-M		'P1'
_symmetry_Int_Tables_number		1
_symmetry_cell_setting		Monoclinic

loop_
_symmetry_equiv_pos_as_xyz
'+x,+y,+z'

loop_
_atom_site_label
_atom_site_type_symbol
_atom_site_fract_x
_atom_site_fract_y
_atom_site_fract_z
0	O	0.36959	0.171308	0.724655
0	O	0.13073	0.312782	0.724974
0	O	0.630842	0.655423	0.776033
0	O	0.86977	0.797011	0.776445
0	O	0.630807	0.797026	0.275906
0	O	0.869719	0.655467	0.276145
0	O	0.369632	0.312879	0.22446
0	O	0.130711	0.171279	0.224713
0	N	0.395563	0.260411	0.798127
0	N	0.104708	0.223655	0.798121
0	N	0.604847	0.744552	0.702839
0	N	0.895713	0.707881	0.702954
0	N	0.604844	0.707877	0.202594
0	N	0.895699	0.744579	0.202712
0	N	0.395564	0.223712	0.297794
0	N	0.104695	0.260408	0.297892
0	C	0.354091	0.286863	0.756298
0	C	0.146168	0.197205	0.756243
0	C	0.646316	0.770999	0.744724
0	C	0.854248	0.681429	0.744821
0	C	0.646311	0.681421	0.244451
0	C	0.854229	0.771023	0.244509
0	C	0.354093	0.197278	0.255922
0	C	0.146152	0.286872	0.255972
0	C	0.318216	0.281579	0.849579
0	C	0.18204	0.202512	0.84954
0	C	0.682193	0.765698	0.651441
0	C	0.818382	0.686728	0.651506
0	C	0.682187	0.686718	0.151163
0	C	0.818368	0.765718	0.151186
0	C	0.318218	0.202571	0.349217
0	C	0.182025	0.281595	0.349266
0	C	0.278721	0.306385	0.806756
0	C	0.22153	0.177698	0.806705
0	C	0.721685	0.79051	0.694293
0	C	0.778892	0.661909	0.694298
0	C	0.721679	0.661896	0.193972
0	C	0.77887	0.790527	0.193968
0	C	0.278727	0.177762	0.306411
0	C	0.22151	0.30641	0.306412
0	C	0.275344	0.336417	0.674144
0	C	0.2249	0.147667	0.674093
0	C	0.725058	0.820539	0.826921
0	C	0.775515	0.631857	0.826891
0	C	0.725053	0.631834	0.326545
0	C	0.775491	0.820585	0.326548
0	C	0.275351	0.147735	0.173782
0	C	0.224881	0.336405	0.173735
0	C	0.311527	0.341629	0.58261
0	C	0.188718	0.14245	0.582558
0	C	0.688865	0.825761	0.918421
0	C	0.811691	0.626618	0.918447
0	C	0.688865	0.626597	0.418035
0	C	0.811671	0.825831	0.418095
0	C	0.311525	0.142529	0.0822206
0	C	0.1887	0.3416	0.0821889
0	C	0.351198	0.316674	0.62266
0	C	0.149052	0.167386	0.622626
0	C	0.649214	0.800829	0.878316
0	C	0.851348	0.651574	0.878377
0	C	0.64921	0.651551	0.378002
0	C	0.851327	0.800874	0.378096
0	C	0.351179	0.167465	0.122306
0	C	0.149038	0.316665	0.122329
0	C	0.400257	0.198037	0.777287
0	C	0.10003	0.286038	0.777274
0	C	0.600154	0.682172	0.723585
0	C	0.900415	0.770262	0.723778
0	C	0.600151	0.770256	0.223331
0	C	0.900384	0.682205	0.223578
0	C	0.400283	0.286081	0.276951
0	C	0.100028	0.198021	0.27724
0	C	0.441883	0.173483	0.820949
0	C	0.0583851	0.310562	0.820783
0	C	0.558515	0.657647	0.680058
0	C	0.942026	0.7948	0.679941
0	C	0.55851	0.794783	0.179774
0	C	0.942019	0.65767	0.179951
0	C	0.44193	0.310591	0.320639
0	C	0.0583937	0.173477	0.320912
0	C	0.47496	0.208029	0.872679
0	C	0.0253196	0.27602	0.872611
0	C	0.525449	0.692198	0.628296
0	C	0.975069	0.760243	0.627983
0	C	0.525439	0.760231	0.128022
0	C	0.975081	0.692212	0.128122
0	C	0.474967	0.276026	0.372433
0	C	0.0253346	0.208012	0.372684
0	C	0.468316	0.269927	0.893102
0	C	0.0319675	0.214136	0.893083
0	C	0.532105	0.754085	0.60784
0	C	0.968425	0.698344	0.607698
0	C	0.532092	0.698335	0.107614
0	C	0.968431	0.754097	0.10765
0	C	0.468302	0.214136	0.392857
0	C	0.0319664	0.26992	0.393029
0	C	0.428823	0.295153	0.857363
0	C	0.0714518	0.188898	0.857276
0	C	0.571595	0.779312	0.643655
0	C	0.928947	0.67312	0.643645
0	C	0.571588	0.673118	0.14338
0	C	0.928943	0.779329	0.143444
0	C	0.428808	0.188937	0.357024
0	C	0.0714381	0.29516	0.357097
0	C	0.445615	0.108101	0.80639
0	C	0.0546411	0.375942	0.806334
0	C	0.554785	0.592259	0.694426
0	C	0.945781	0.860182	0.694414
0	C	0.554749	0.860165	0.194318
0	C	0.945745	0.592285	0.194378
0	C	0.445655	0.375979	0.306251
0	C	0.0546462	0.108097	0.306304
0	C	0.452365	0.0776416	0.954375
0	C	0.0480026	0.406288	0.954515
0	C	0.548107	0.561938	0.546237
0	C	0.952448	0.890638	0.546384
0	C	0.548027	0.890602	0.0462895
0	C	0.952385	0.561952	0.0461867
0	C	0.452326	0.406308	0.454448
0	C	0.0479668	0.0776236	0.454308
0	C	0.499567	0.0792113	0.00778064
0	C	0.000822156	0.404713	0.00809938
0	C	0.500923	0.563533	0.492703
0	C	0.999619	0.889061	0.492703
0	C	0.500826	0.889041	0.992886
0	C	0.999559	0.563534	0.992545
0	C	0.499509	0.40471	0.507991
0	C	0.000789232	0.0792007	0.507932
0	C	0.51579	0.141114	0.0430116
0	C	0.984563	0.342828	0.0432457
0	C	0.484669	0.625424	0.4576
0	C	0.0158065	0.827152	0.457356
0	C	0.484599	0.827141	0.957682
0	C	0.0158175	0.62542	0.957414
0	C	0.515733	0.342811	0.543181
0	C	0.98459	0.141105	0.543275
0	C	0.518313	0.180649	0.907456
0	C	0.981973	0.303379	0.907563
0	C	0.4821	0.664853	0.593336
0	C	0.0184032	0.787618	0.592895
0	C	0.482079	0.787584	0.0931972
0	C	0.0184218	0.664847	0.0931387
0	C	0.518317	0.303361	0.4075
0	C	0.982	0.180626	0.407708
0	C	0.504137	0.306003	0.957532
0	C	0.996164	0.178066	0.957619
0	C	0.496297	0.790148	0.543296
0	C	0.00421404	0.662242	0.543171
0	C	0.496282	0.662252	0.0431718
0	C	0.00422472	0.790167	0.0430491
0	C	0.504101	0.178046	0.457381
0	C	0.996161	0.306	0.457528
0	C	0.419959	0.358806	0.880422
0	C	0.080297	0.125241	0.880277
0	C	0.580451	0.842966	0.620639
0	C	0.920095	0.609459	0.620688
0	C	0.580452	0.609465	0.120311
0	C	0.920083	0.842975	0.120344
0	C	0.419935	0.125287	0.38002
0	C	0.0802756	0.358831	0.379996
0	H	0.321106	0.258484	0.953676
0	H	0.179145	0.225615	0.953624
0	H	0.679305	0.742612	0.547335
0	H	0.821284	0.709813	0.547391
0	H	0.679295	0.709806	0.0470694
0	H	0.821273	0.742625	0.0470934
0	H	0.321115	0.225661	0.453324
0	H	0.179132	0.258505	0.453381
0	H	0.250271	0.301909	0.877092
0	H	0.249975	0.182162	0.877072
0	H	0.750126	0.78606	0.623904
0	H	0.750452	0.666369	0.623913
0	H	0.75012	0.666368	0.123594
0	H	0.750429	0.786053	0.123603
0	H	0.250282	0.18221	0.376788
0	H	0.249954	0.301967	0.376791
0	H	0.244303	0.35545	0.641975
0	H	0.255933	0.128621	0.641909
0	H	0.756097	0.839576	0.859113
0	H	0.744475	0.612818	0.859029
0	H	0.75609	0.612785	0.358698
0	H	0.744452	0.839624	0.358695
0	H	0.244311	0.128697	0.141633
0	H	0.255918	0.35544	0.141536
0	H	0.308985	0.364933	0.478987
0	H	0.191257	0.119141	0.478939
0	H	0.6914	0.849061	0.022066
0	H	0.809155	0.603301	0.0220577
0	H	0.691399	0.603252	0.521607
0	H	0.809127	0.84917	0.521671
0	H	0.308987	0.119242	0.978565
0	H	0.191236	0.36486	0.978493
0	H	0.379328	0.320106	0.5509
0	H	0.120899	0.163933	0.550944
0	H	0.621042	0.804295	0.950001
0	H	0.879519	0.648107	0.950112
0	H	0.621036	0.64808	0.44972
0	H	0.879491	0.804333	0.449828
0	H	0.379351	0.164014	0.0505387
0	H	0.120875	0.320101	0.0505941
0	H	0.415568	0.0904666	0.754789
0	H	0.0846579	0.393599	0.75452
0	H	0.584816	0.574598	0.746106
0	H	0.915751	0.877828	0.746183
0	H	0.584788	0.877821	0.245996
0	H	0.915722	0.574641	0.246144
0	H	0.41561	0.39363	0.254615
0	H	0.0846638	0.090448	0.2545
0	H	0.472508	0.0971186	0.730729
0	H	0.0276951	0.386942	0.730944
0	H	0.527857	0.581236	0.769887
0	H	0.972709	0.871161	0.7699
0	H	0.52784	0.871131	0.269873
0	H	0.972687	0.581259	0.269781
0	H	0.472558	0.387007	0.230777
0	H	0.0277122	0.0971401	0.230816
0	H	0.430797	0.0979847	0.0369864
0	H	0.0695913	0.385841	0.0369123
0	H	0.56969	0.582375	0.463779
0	H	0.930835	0.870302	0.46387
0	H	0.569586	0.870227	0.963693
0	H	0.930786	0.582388	0.963805
0	H	0.430735	0.38587	0.53688
0	H	0.0695758	0.0979526	0.536853
0	H	0.441714	0.0314773	0.945353
0	H	0.0587118	0.45244	0.945679
0	H	0.558804	0.51578	0.555038
0	H	0.941803	0.936803	0.555473
0	H	0.558697	0.936762	0.0552542
0	H	0.941686	0.515796	0.0550236
0	H	0.441622	0.452462	0.445639
0	H	0.0586048	0.031456	0.445197
0	H	0.502619	0.0515655	0.106661
0	H	0.997817	0.432329	0.107102
0	H	0.497901	0.535931	0.393667
0	H	0.00261068	0.916702	0.393764
0	H	0.497781	0.916669	0.893975
0	H	0.00254712	0.535932	0.893495
0	H	0.502542	0.432339	0.606979
0	H	0.997784	0.0515418	0.606833
0	H	0.521013	0.0588283	0.925044
0	H	0.979355	0.425114	0.925438
0	H	0.479445	0.543117	0.57531
0	H	0.0211144	0.909445	0.575272
0	H	0.479376	0.909434	0.0756018
0	H	0.0210364	0.543108	0.0751262
0	H	0.520988	0.425085	0.425319
0	H	0.979304	0.058827	0.425329
0	H	0.494509	0.161679	0.12634
0	H	0.0058359	0.322186	0.126476
0	H	0.505934	0.646059	0.374347
0	H	0.994484	0.806596	0.374158
0	H	0.505858	0.806578	0.874302
0	H	0.994536	0.646069	0.874223
0	H	0.494438	0.322198	0.626372
0	H	0.00590196	0.161671	0.626496
0	H	0.54839	0.138268	0.0935141
0	H	0.951974	0.345714	0.0938263
0	H	0.452074	0.622559	0.407054
0	H	0.0483764	0.82999	0.406628
0	H	0.45199	0.829997	0.907234
0	H	0.0483983	0.622542	0.906775
0	H	0.548317	0.345665	0.593826
0	H	0.952013	0.13826	0.593949
0	H	0.543845	0.214109	0.923713
0	H	0.956446	0.269914	0.923793
0	H	0.456567	0.698315	0.577188
0	H	0.0439166	0.754149	0.576496
0	H	0.456565	0.754106	0.0768653
0	H	0.0439586	0.698306	0.0769473
0	H	0.543829	0.269879	0.423754
0	H	0.956469	0.214078	0.424048
0	H	0.529397	0.154777	0.811637
0	H	0.970866	0.329302	0.811851
0	H	0.470994	0.638903	0.689005
0	H	0.029541	0.813495	0.688655
0	H	0.47096	0.81344	0.189029
0	H	0.0295206	0.638897	0.188797
0	H	0.529454	0.329278	0.311798
0	H	0.970885	0.154739	0.311939
0	H	0.514549	0.287568	0.0629801
0	H	0.985809	0.196476	0.0631575
0	H	0.485944	0.77175	0.437743
0	H	0.0145576	0.680614	0.437574
0	H	0.485911	0.680637	0.93762
0	H	0.0145644	0.771753	0.937503
0	H	0.514488	0.196456	0.562891
0	H	0.985786	0.287588	0.563042
0	H	0.532415	0.307405	0.884479
0	H	0.967854	0.176695	0.884711
0	H	0.467979	0.791519	0.616167
0	H	0.0325382	0.660892	0.616037
0	H	0.467972	0.660903	0.1161
0	H	0.0325439	0.791548	0.115926
0	H	0.532398	0.176635	0.384425
0	H	0.967857	0.307383	0.384589
0	H	0.494766	0.351458	0.979416
0	H	0.00551297	0.132596	0.979362
0	H	0.505656	0.835625	0.521542
0	H	0.994851	0.616771	0.521525
0	H	0.505637	0.616775	0.0214692
0	H	0.994868	0.835633	0.0212923
0	H	0.494722	0.132585	0.4792
0	H	0.00552749	0.351462	0.479317
0	H	0.443639	0.38612	0.821806
0	H	0.0565854	0.0979391	0.82177
0	H	0.556733	0.870274	0.679103
0	H	0.943792	0.582158	0.679269
0	H	0.55674	0.582144	0.178753
0	H	0.943783	0.870303	0.178847
0	H	0.443615	0.0979702	0.321405
0	H	0.0565597	0.386103	0.321422
0	H	0.387501	0.373348	0.845366
0	H	0.112736	0.110666	0.845114
0	H	0.612889	0.857537	0.655835
0	H	0.887648	0.594904	0.655817
0	H	0.61289	0.594903	0.155516
0	H	0.887635	0.857542	0.155434
0	H	0.387479	0.11075	0.344952
0	H	0.112713	0.373398	0.344794
0	H	0.42168	0.369445	0.998061
0	H	0.0785968	0.114592	0.997916
0	H	0.578766	0.853601	0.502989
0	H	0.921805	0.598806	0.503056
0	H	0.578779	0.598856	0.00265075
0	H	0.921791	0.853593	0.00268552
0	H	0.421663	0.114621	0.497639
0	H	0.0785744	0.3695	0.497619
