#******************************************
#
# CIF file created by Zeo++
# Zeo++ is an open source package to
# analyze microporous materials
#
#*******************************************

_cell_length_a		10.324(0)
_cell_length_b		10.3491(0)
_cell_length_c		54.4042(0)
_cell_angle_alpha		90(0)
_cell_angle_beta		90(0)
_cell_angle_gamma		90(0)

_symmetry_space_group_name_H-M		'P1'
_symmetry_Int_Tables_number		1
_symmetry_cell_setting		Monoclinic

loop_
_symmetry_equiv_pos_as_xyz
'+x,+y,+z'

loop_
_atom_site_label
_atom_site_type_symbol
_atom_site_fract_x
_atom_site_fract_y
_atom_site_fract_z
0	C	0.485476	0.976972	0.116032
0	C	0.570558	0.0747964	0.615266
0	C	0.580296	0.982341	0.8664
0	C	0.474514	0.0707803	0.365716
0	C	0.0710628	0.473786	0.634067
0	C	0.984118	0.578157	0.134042
0	C	0.979093	0.482539	0.884278
0	C	0.0757159	0.570126	0.384106
0	C	0.246512	0.833842	0.11681
0	C	0.808987	0.21806	0.616469
0	C	0.724545	0.744482	0.867434
0	C	0.330154	0.308345	0.367005
0	C	0.309164	0.3299	0.632809
0	C	0.745852	0.721861	0.132782
0	C	0.835159	0.244568	0.883352
0	C	0.219587	0.808049	0.383184
0	H	0.186678	0.755683	0.125901
0	H	0.869091	0.296001	0.625559
0	H	0.803082	0.685326	0.8766
0	H	0.251735	0.367607	0.376175
0	H	0.368834	0.251756	0.623673
0	H	0.686199	0.799934	0.123613
0	H	0.756735	0.185064	0.874241
0	H	0.297984	0.867744	0.374114
0	C	0.370152	0.769895	0.106138
0	C	0.685686	0.282394	0.605749
0	C	0.788273	0.867809	0.856676
0	C	0.266233	0.185237	0.356213
0	C	0.185773	0.265941	0.643569
0	C	0.869238	0.785972	0.143511
0	C	0.771219	0.367921	0.89405
0	C	0.283586	0.684725	0.393885
0	H	0.400619	0.682741	0.117277
0	H	0.654817	0.369037	0.616989
0	H	0.875498	0.89881	0.867801
0	H	0.179332	0.153978	0.367399
0	H	0.154534	0.179349	0.632352
0	H	0.900536	0.872449	0.132265
0	H	0.684041	0.39862	0.882886
0	H	0.370728	0.654059	0.382709
0	C	0.322282	0.155675	0.125299
0	C	0.733069	0.896314	0.625092
0	C	0.40157	0.81939	0.875685
0	C	0.653071	0.233394	0.375364
0	C	0.233858	0.651929	0.624332
0	C	0.821529	0.399729	0.124413
0	C	0.157908	0.319836	0.874817
0	C	0.897026	0.732864	0.37458
0	C	0.338434	0.864677	0.158953
0	C	0.716075	0.187694	0.658559
0	C	0.693261	0.836943	0.909474
0	C	0.361079	0.215058	0.408996
0	C	0.215591	0.360254	0.59081
0	C	0.839257	0.691086	0.0907914
0	C	0.866272	0.33649	0.84123
0	C	0.188949	0.716093	0.341049
0	H	0.424178	0.806145	0.153093
0	H	0.630592	0.246364	0.652622
0	H	0.751903	0.922448	0.903575
0	H	0.302184	0.129907	0.403018
0	H	0.130197	0.301642	0.596815
0	H	0.92496	0.749393	0.0967559
0	H	0.807603	0.421977	0.847112
0	H	0.247893	0.630835	0.346953
0	C	0.161177	0.898479	0.0974995
0	C	0.894073	0.152782	0.597202
0	C	0.66017	0.658571	0.848205
0	C	0.394869	0.394172	0.347804
0	C	0.394841	0.394812	0.652023
0	C	0.660067	0.657368	0.152032
0	C	0.899725	0.159222	0.902657
0	C	0.154468	0.893125	0.402461
0	H	0.0795317	0.949734	0.106352
0	H	0.975393	0.101175	0.606088
0	H	0.609429	0.576989	0.857147
0	H	0.44591	0.47552	0.356767
0	H	0.476395	0.445827	0.643082
0	H	0.578427	0.606417	0.143113
0	H	0.95106	0.0777979	0.893794
0	H	0.103029	0.974429	0.393577
0	H	0.11876	0.826793	0.0847507
0	H	0.936962	0.224142	0.584435
0	H	0.732117	0.616495	0.83545
0	H	0.323021	0.436608	0.33506
0	H	0.437368	0.3233	0.664805
0	H	0.617698	0.729045	0.164789
0	H	0.827733	0.11688	0.915376
0	H	0.226148	0.935642	0.415228
0	H	0.213106	0.969344	0.0862838
0	H	0.841849	0.0821181	0.585991
0	H	0.588624	0.709662	0.836998
0	H	0.466206	0.342912	0.336573
0	H	0.343194	0.465948	0.663215
0	H	0.711619	0.586224	0.163239
0	H	0.970708	0.21091	0.913905
0	H	0.0834613	0.841219	0.413662
0	C	0.360923	0.735335	0.0792954
0	C	0.6955	0.318065	0.578965
0	C	0.823151	0.857741	0.829858
0	C	0.230653	0.195587	0.329431
0	C	0.196089	0.230158	0.670339
0	C	0.858609	0.822084	0.170258
0	C	0.73626	0.358498	0.920875
0	C	0.318613	0.694087	0.420709
0	C	0.401003	0.820273	0.0607485
0	C	0.655331	0.234051	0.560275
0	C	0.739214	0.899406	0.811253
0	C	0.31433	0.154568	0.310731
0	C	0.155375	0.313622	0.689075
0	C	0.899953	0.739215	0.189036
0	C	0.820809	0.399191	0.939463
0	C	0.234107	0.65331	0.439296
0	H	0.442443	0.913567	0.0655763
0	H	0.613496	0.140708	0.564943
0	H	0.646635	0.943043	0.816021
0	H	0.407289	0.111412	0.315394
0	H	0.112395	0.406534	0.684448
0	H	0.943684	0.646586	0.184459
0	H	0.914101	0.441189	0.934684
0	H	0.140858	0.611223	0.434517
0	C	0.390141	0.783876	0.0360881
0	C	0.666587	0.271423	0.535672
0	C	0.775764	0.887242	0.786615
0	C	0.277025	0.16671	0.286134
0	C	0.167576	0.276159	0.713658
0	C	0.887345	0.776929	0.213599
0	C	0.783974	0.388223	0.964104
0	C	0.270906	0.66432	0.46394
0	H	0.42194	0.84949	0.0216378
0	H	0.634754	0.206482	0.521115
0	H	0.710956	0.920267	0.772117
0	H	0.34165	0.134235	0.271563
0	H	0.135327	0.34062	0.728257
0	H	0.920059	0.712925	0.228234
0	H	0.849297	0.420485	0.978584
0	H	0.205593	0.632027	0.478419
0	C	0.33906	0.663143	0.0298793
0	C	0.71817	0.392221	0.529662
0	C	0.895574	0.833264	0.780493
0	C	0.156668	0.219899	0.280146
0	C	0.22053	0.155864	0.719598
0	C	0.833316	0.896836	0.219469
0	C	0.663206	0.336456	0.97025
0	C	0.391605	0.716236	0.470091
0	H	0.331183	0.635397	0.0106165
0	H	0.726443	0.42068	0.510445
0	H	0.923367	0.824206	0.761254
0	H	0.128264	0.228859	0.26094
0	H	0.229596	0.127359	0.738796
0	H	0.824011	0.925566	0.238652
0	H	0.635115	0.328502	0.989496
0	H	0.419618	0.72437	0.489339
0	C	0.298891	0.578262	0.0483852
0	C	0.758326	0.476237	0.548315
0	C	0.979557	0.791713	0.799067
0	C	0.0729357	0.260751	0.298815
0	C	0.260973	0.0723159	0.700895
0	C	0.792052	0.979706	0.200718
0	C	0.578741	0.295659	0.951699
0	C	0.476105	0.756963	0.451538
0	H	0.259064	0.484202	0.043608
0	H	0.798527	0.570357	0.543692
0	H	0.0728932	0.749695	0.794356
0	H	0.979159	0.302113	0.294211
0	H	0.302074	0.978484	0.705463
0	H	0.749932	0.073154	0.205235
0	H	0.484671	0.25526	0.956426
0	H	0.570159	0.797422	0.456268
0	C	0.310521	0.613644	0.0730563
0	C	0.746303	0.439877	0.572926
0	C	0.944051	0.804574	0.823709
0	C	0.109239	0.247997	0.323418
0	C	0.248125	0.108757	0.676305
0	C	0.805299	0.943037	0.17615
0	C	0.614552	0.307327	0.927049
0	C	0.440335	0.745223	0.426888
0	H	0.282806	0.545995	0.0875469
0	H	0.774077	0.506821	0.58753
0	H	0.0109204	0.775491	0.83825
0	H	0.0425719	0.276522	0.338035
0	H	0.276222	0.0422041	0.661659
0	H	0.776478	0.00903481	0.161467
0	H	0.547267	0.278978	0.912523
0	H	0.507643	0.773516	0.412361
0	C	0.233691	0.774846	0.170612
0	C	0.820887	0.277257	0.670272
0	C	0.783143	0.732498	0.921201
0	C	0.271615	0.319594	0.420803
0	C	0.320344	0.270778	0.579055
0	C	0.734744	0.781011	0.0790781
0	C	0.77629	0.232098	0.829528
0	C	0.278583	0.820785	0.329339
0	H	0.135725	0.792723	0.162977
0	H	0.918949	0.258995	0.662716
0	H	0.765716	0.634851	0.913483
0	H	0.289358	0.417325	0.413148
0	H	0.418343	0.288645	0.586688
0	H	0.636766	0.763574	0.0867501
0	H	0.79417	0.13431	0.837137
0	H	0.26019	0.918564	0.336915
0	H	0.255317	0.672134	0.167267
0	H	0.799712	0.380017	0.66688
0	H	0.886136	0.754476	0.918
0	H	0.168539	0.298067	0.417593
0	H	0.298828	0.167982	0.582333
0	H	0.756803	0.883695	0.0823466
0	H	0.673338	0.253672	0.832864
0	H	0.381616	0.799719	0.33271
0	C	0.236918	0.809492	0.198301
0	C	0.817021	0.242821	0.697967
0	C	0.747477	0.735284	0.948843
0	C	0.307334	0.316151	0.448441
0	C	0.31691	0.305967	0.551398
0	C	0.737744	0.745856	0.0514201
0	C	0.811109	0.235558	0.801843
0	C	0.243921	0.817	0.30165
0	H	0.152514	0.774977	0.208569
0	H	0.901339	0.27715	0.708285
0	H	0.781474	0.650711	0.959081
0	H	0.273707	0.400667	0.458735
0	H	0.401606	0.272197	0.541123
0	H	0.653081	0.779962	0.0411737
0	H	0.776558	0.151435	0.791543
0	H	0.278236	0.901162	0.291332
0	C	0.368702	0.761283	0.208532
0	C	0.685193	0.29156	0.708083
0	C	0.795622	0.866448	0.959247
0	C	0.258609	0.185011	0.458751
0	C	0.185426	0.257244	0.541126
0	C	0.869337	0.794024	0.0410927
0	C	0.762811	0.367087	0.791642
0	C	0.292725	0.685541	0.291502
0	H	0.388	0.660346	0.203287
0	H	0.666207	0.392405	0.702735
0	H	0.897141	0.88558	0.954245
0	H	0.15707	0.16635	0.453702
0	H	0.166642	0.156065	0.546257
0	H	0.888512	0.895183	0.0461812
0	H	0.66163	0.3863	0.796883
0	H	0.393879	0.666631	0.296806
0	H	0.370564	0.764198	0.228758
0	H	0.682987	0.289131	0.728308
0	H	0.791439	0.867815	0.979471
0	H	0.262597	0.183261	0.478972
0	H	0.183661	0.26075	0.520903
0	H	0.870892	0.790315	0.0208682
0	H	0.765804	0.369102	0.771421
0	H	0.290067	0.6834	0.271279
0	C	0.467585	0.856147	0.197057
0	C	0.586308	0.196696	0.696618
0	C	0.701426	0.965525	0.947646
0	C	0.352477	0.0857942	0.447105
0	C	0.0860585	0.35125	0.552697
0	C	0.968487	0.699741	0.0526557
0	C	0.857838	0.465661	0.803159
0	C	0.197828	0.586774	0.302987
0	H	0.540363	0.806178	0.185527
0	H	0.513527	0.246602	0.685075
0	H	0.75226	0.0379256	0.93619
0	H	0.301416	0.0136112	0.435631
0	H	0.0135885	0.300596	0.564181
0	H	0.0410294	0.750198	0.0641479
0	H	0.807702	0.538182	0.814704
0	H	0.247999	0.514256	0.314527
0	H	0.522618	0.908854	0.211167
0	H	0.531194	0.144111	0.71073
0	H	0.648295	0.0206984	0.961675
0	H	0.405447	0.0302809	0.461111
0	H	0.0305637	0.403931	0.538649
0	H	0.0237985	0.646943	0.038602
0	H	0.910707	0.520686	0.789074
0	H	0.145105	0.531718	0.288887
0	C	0.381421	0.950995	0.181521
0	C	0.672422	0.101637	0.681119
0	C	0.606484	0.880024	0.931988
0	C	0.447696	0.171156	0.431473
0	C	0.171674	0.446377	0.568288
0	C	0.88262	0.604849	0.0682429
0	C	0.952871	0.379581	0.818683
0	C	0.102559	0.67261	0.318504
0	C	0.254398	0.960345	0.197704
0	C	0.79907	0.0920023	0.6974
0	C	0.596288	0.753152	0.948099
0	C	0.458458	0.297633	0.447682
0	C	0.298462	0.456754	0.552073
0	C	0.755596	0.595016	0.0520828
0	C	0.962345	0.253024	0.802463
0	C	0.0927383	0.799045	0.302251
0	C	0.142276	0.0326783	0.185614
0	C	0.911238	0.0192191	0.685426
0	C	0.523732	0.641579	0.93593
0	C	0.531382	0.409271	0.435616
0	C	0.410382	0.529625	0.56411
0	C	0.643686	0.522412	0.0641828
0	C	0.0348435	0.141092	0.814528
0	C	0.0198387	0.910846	0.314274
0	H	0.119431	0.997093	0.167063
0	H	0.934537	0.0545613	0.66688
0	H	0.559308	0.619116	0.917355
0	H	0.495705	0.43243	0.417081
0	H	0.43405	0.493768	0.582604
0	H	0.620436	0.558209	0.0827035
0	H	0.998738	0.117793	0.833027
0	H	0.0558021	0.934384	0.332771
0	H	0.164758	0.135649	0.183613
0	H	0.888509	0.91629	0.683447
0	H	0.420515	0.664002	0.933941
0	H	0.634469	0.386469	0.433565
0	H	0.387246	0.632356	0.566238
0	H	0.666574	0.419583	0.0662775
0	H	0.137889	0.163779	0.816647
0	H	0.916858	0.88787	0.316385
0	H	0.05329	0.0229775	0.19643
0	H	0.999985	0.0287891	0.696316
0	H	0.533515	0.552599	0.946688
0	H	0.522076	0.497935	0.446483
0	H	0.499069	0.520793	0.553178
0	H	0.554799	0.531517	0.0533172
0	H	0.0256694	0.0525513	0.803629
0	H	0.0287866	0.999308	0.303344
0	C	0.275605	0.0206708	0.223148
0	C	0.777039	0.0319559	0.722845
0	C	0.535631	0.774153	0.973531
0	C	0.519056	0.275651	0.473088
0	C	0.2765	0.516816	0.526635
0	C	0.776809	0.534941	0.0266205
0	C	0.0228641	0.274408	0.77703
0	C	0.0323476	0.777225	0.276821
0	H	0.35626	0.977267	0.23321
0	H	0.695534	0.0749083	0.732731
0	H	0.579096	0.854628	0.983599
0	H	0.475677	0.194689	0.483026
0	H	0.195335	0.47344	0.516716
0	H	0.857593	0.5784	0.0166019
0	H	0.97967	0.355218	0.767023
0	H	0.0752018	0.695874	0.26692
0	H	0.188995	0.00906957	0.234583
0	H	0.862968	0.044385	0.73443
0	H	0.547446	0.687708	0.984947
0	H	0.507146	0.361572	0.484637
0	H	0.362623	0.504698	0.515095
0	H	0.690279	0.547007	0.0151826
0	H	0.0109085	0.188261	0.765539
0	H	0.0448558	0.862953	0.265241
0	H	0.295375	0.124486	0.221534
0	H	0.75808	0.927981	0.721265
0	H	0.431609	0.793855	0.971921
0	H	0.623094	0.256085	0.471456
0	H	0.256949	0.620626	0.52821
0	H	0.796438	0.431125	0.0281692
0	H	0.126947	0.293709	0.778651
0	H	0.928151	0.758481	0.278431
0	C	0.448962	0.0775194	0.176596
0	C	0.604498	0.975354	0.676152
0	C	0.480231	0.9482	0.926938
0	C	0.573516	0.102319	0.426346
0	C	0.10281	0.572043	0.573361
0	C	0.950821	0.478779	0.0732621
0	C	0.0796182	0.446962	0.823632
0	C	0.976057	0.604803	0.323459
0	H	0.380493	0.150589	0.169826
0	H	0.6729	0.901931	0.669496
0	H	0.406684	0.88043	0.920105
0	H	0.647552	0.169855	0.419622
0	H	0.170567	0.645906	0.580063
0	H	0.882759	0.405344	0.0800279
0	H	0.152886	0.378584	0.830366
0	H	0.902495	0.672928	0.330168
0	H	0.52862	0.0683863	0.163451
0	H	0.525382	0.984756	0.662895
0	H	0.490284	0.0274837	0.913773
0	H	0.562938	0.0236245	0.413066
0	H	0.0238733	0.561705	0.586636
0	H	0.0301116	0.488609	0.0864723
0	H	0.0704773	0.526287	0.836809
0	H	0.985478	0.525611	0.336658
0	H	0.48956	0.117919	0.193612
0	H	0.563067	0.935295	0.693124
0	H	0.439567	0.989175	0.943896
0	H	0.613802	0.0603449	0.443247
0	H	0.0608424	0.612101	0.55644
0	H	0.992079	0.438426	0.0563043
0	H	0.120062	0.487643	0.806627
0	H	0.935809	0.563815	0.306463
0	C	0.419407	0.257028	0.116716
0	C	0.636121	0.794553	0.616622
0	C	0.299942	0.915635	0.866848
0	C	0.754939	0.137246	0.36659
0	C	0.137435	0.7537	0.633036
0	C	0.917907	0.298177	0.133223
0	C	0.2595	0.416611	0.88344
0	C	0.79529	0.63611	0.383143
0	H	0.521346	0.231161	0.122417
0	H	0.534173	0.820528	0.622292
0	H	0.326075	0.0178453	0.872156
0	H	0.728742	0.0350344	0.371895
0	H	0.0350572	0.727634	0.627679
0	H	0.0203226	0.32416	0.127888
0	H	0.233442	0.518401	0.877814
0	H	0.821404	0.534326	0.377523
0	C	0.385742	0.390908	0.128087
0	C	0.669932	0.661025	0.628124
0	C	0.165713	0.883597	0.87837
0	C	0.888981	0.169434	0.378174
0	C	0.170123	0.887303	0.621436
0	C	0.885423	0.164315	0.121712
0	C	0.393707	0.383567	0.872034
0	C	0.661284	0.669257	0.37166
0	H	0.284327	0.420046	0.123104
0	H	0.77138	0.631863	0.623173
0	H	0.135308	0.782622	0.873483
0	H	0.919374	0.270435	0.373298
0	H	0.271528	0.917199	0.626283
0	H	0.784143	0.134257	0.126626
0	H	0.423509	0.28259	0.877036
0	H	0.631555	0.770316	0.376609
0	C	0.414001	0.263344	0.0886662
0	C	0.641467	0.787364	0.588578
0	C	0.292949	0.907186	0.838825
0	C	0.762303	0.14558	0.338566
0	C	0.145358	0.761198	0.661062
0	C	0.909635	0.29118	0.161248
0	C	0.265957	0.410614	0.911486
0	C	0.788367	0.641959	0.411184
0	H	0.454856	0.176382	0.0802068
0	H	0.599482	0.873568	0.580031
0	H	0.379819	0.946994	0.830112
0	H	0.675379	0.105991	0.329825
0	H	0.105865	0.674376	0.669796
0	H	0.949743	0.377787	0.169952
0	H	0.179079	0.451794	0.919985
0	H	0.874873	0.600251	0.419728
0	H	0.472227	0.346188	0.0821259
0	H	0.584118	0.703679	0.582147
0	H	0.209384	0.964047	0.832126
0	H	0.845737	0.088367	0.331914
0	H	0.0876006	0.844237	0.66767
0	H	0.966588	0.207745	0.167929
0	H	0.349416	0.468027	0.918053
0	H	0.70451	0.584906	0.417683
0	H	0.3154	0.27794	0.081751
0	H	0.740156	0.77365	0.581649
0	H	0.278386	0.80802	0.832334
0	H	0.777278	0.244681	0.332067
0	H	0.244546	0.77654	0.667614
0	H	0.810269	0.276749	0.16777
0	H	0.279968	0.312017	0.918327
0	H	0.774729	0.740557	0.418047
0	C	0.404465	0.3924	0.155738
0	C	0.65113	0.65998	0.655774
0	C	0.164476	0.90293	0.906005
0	C	0.890036	0.150047	0.405806
0	C	0.150565	0.888374	0.593804
0	C	0.904571	0.162959	0.0940694
0	C	0.39494	0.402079	0.84438
0	C	0.660404	0.650417	0.344015
0	C	0.299558	0.413436	0.170802
0	C	0.755979	0.639378	0.670877
0	C	0.143359	0.798561	0.921144
0	C	0.911082	0.254356	0.420967
0	C	0.255079	0.909405	0.578638
0	C	0.799813	0.14167	0.078978
0	C	0.415577	0.297316	0.829323
0	C	0.639855	0.754939	0.328892
0	H	0.202505	0.426918	0.163033
0	H	0.853129	0.626124	0.663136
0	H	0.129682	0.701673	0.913426
0	H	0.924562	0.351321	0.413263
0	H	0.352324	0.922721	0.58633
0	H	0.702802	0.127997	0.0867449
0	H	0.428997	0.200512	0.837107
0	H	0.626336	0.851867	0.336616
0	C	0.314958	0.418573	0.196891
0	C	0.740389	0.634275	0.696962
0	C	0.138355	0.814375	0.947225
0	C	0.91646	0.23835	0.44704
0	C	0.239024	0.915032	0.552569
0	C	0.815345	0.136438	0.0528945
0	C	0.420374	0.312592	0.803228
0	C	0.635195	0.739254	0.302807
0	C	0.207551	0.444223	0.212819
0	C	0.847716	0.608894	0.712928
0	C	0.112848	0.707462	0.963221
0	C	0.94242	0.345078	0.463058
0	C	0.346055	0.940975	0.536564
0	C	0.707977	0.110812	0.0369565
0	C	0.44558	0.205352	0.787295
0	C	0.609726	0.846173	0.286808
0	H	0.112517	0.459511	0.204642
0	H	0.942876	0.593956	0.704781
0	H	0.0976727	0.612537	0.955088
0	H	0.957425	0.440077	0.454944
0	H	0.441301	0.955741	0.544683
0	H	0.612919	0.0957205	0.0451302
0	H	0.460697	0.11051	0.79547
0	H	0.594394	0.941109	0.294929
0	C	0.225042	0.450609	0.237786
0	C	0.829991	0.602288	0.737887
0	C	0.106366	0.725328	0.988174
0	C	0.949648	0.326937	0.487995
0	C	0.327878	0.948446	0.511628
0	C	0.72557	0.104158	0.011996
0	C	0.451766	0.222736	0.762324
0	C	0.603462	0.828328	0.261852
0	H	0.144347	0.471444	0.250079
0	H	0.910609	0.581601	0.750206
0	H	0.0855705	0.645056	0.000522084
0	H	0.970961	0.407057	0.500348
0	H	0.408212	0.96969	0.499281
0	H	0.644967	0.0833125	0.999689
0	H	0.472282	0.142157	0.750033
0	H	0.582595	0.9086	0.249501
0	C	0.35022	0.430546	0.248194
0	C	0.704635	0.621867	0.74825
0	C	0.126183	0.850434	0.998501
0	C	0.929989	0.20174	0.498289
0	C	0.202337	0.929132	0.501331
0	C	0.850857	0.123857	0.00160845
0	C	0.431935	0.347644	0.751916
0	C	0.623639	0.703294	0.25152
0	H	0.360846	0.435828	0.268129
0	H	0.693811	0.616373	0.768179
0	H	0.120707	0.861505	0.018427
0	H	0.936006	0.190441	0.518204
0	H	0.191019	0.935404	0.48142
0	H	0.861708	0.118221	0.98168
0	H	0.437051	0.358214	0.731978
0	H	0.618494	0.692401	0.231589
0	C	0.454724	0.405614	0.233356
0	C	0.600203	0.646583	0.73338
0	C	0.151092	0.954444	0.983599
0	C	0.904571	0.0979126	0.483374
0	C	0.0982183	0.903727	0.516237
0	C	0.955306	0.148863	0.0164575
0	C	0.407403	0.452003	0.766757
0	C	0.648487	0.599255	0.26642
0	H	0.550778	0.391006	0.241207
0	H	0.504024	0.66081	0.741198
0	H	0.165591	0.0503977	0.991408
0	H	0.890224	0.00185053	0.491157
0	H	0.00196107	0.889656	0.508451
0	H	0.0513274	0.163269	0.00860224
0	H	0.392969	0.54785	0.758904
0	H	0.663194	0.503322	0.258626
0	C	0.439812	0.400032	0.207229
0	C	0.615375	0.652401	0.707257
0	C	0.156804	0.939129	0.957482
0	C	0.898259	0.113487	0.457266
0	C	0.113846	0.897067	0.542342
0	C	0.94026	0.154822	0.0425799
0	C	0.40203	0.437171	0.792887
0	C	0.653765	0.614532	0.292542
0	C	0.547316	0.377416	0.191179
0	C	0.507957	0.67472	0.691174
0	C	0.179405	0.0461028	0.941359
0	C	0.875497	0.00662693	0.441127
0	C	0.00681893	0.874171	0.558481
0	C	0.0476058	0.177611	0.0586501
0	C	0.379862	0.544536	0.808934
0	C	0.675934	0.507433	0.308651
0	H	0.642769	0.363297	0.19922
0	H	0.412393	0.6886	0.699184
0	H	0.193488	0.141479	0.949338
0	H	0.861611	0.91118	0.449085
0	H	0.911134	0.860364	0.550523
0	H	0.143096	0.19166	0.0506256
0	H	0.36588	0.639768	0.80089
0	H	0.6901	0.412092	0.300664
0	C	0.529943	0.373798	0.166193
0	C	0.525521	0.678283	0.666192
0	C	0.183093	0.028295	0.916382
0	C	0.871561	0.0246033	0.416156
0	C	0.0248157	0.87001	0.583451
0	C	0.0301104	0.181516	0.0836335
0	C	0.376497	0.527277	0.833922
0	C	0.679025	0.525076	0.333631
0	H	0.611356	0.356202	0.153799
0	H	0.444142	0.695573	0.653775
0	H	0.20076	0.109354	0.903943
0	H	0.853869	0.943618	0.403704
0	H	0.94371	0.852257	0.595902
0	H	0.111443	0.199263	0.0960341
0	H	0.359223	0.608589	0.846315
0	H	0.696213	0.443955	0.346073
0	N	0.366874	0.023694	0.126279
0	N	0.688333	0.028336	0.625889
0	N	0.533727	0.864183	0.876747
0	N	0.520897	0.188511	0.376274
0	N	0.188978	0.520015	0.623472
0	N	0.866192	0.531704	0.123492
0	N	0.0256688	0.364395	0.873923
0	N	0.0292281	0.688174	0.373697
0	N	0.280154	0.931281	0.136612
0	N	0.774744	0.120875	0.636278
0	N	0.626597	0.778231	0.887172
0	N	0.427903	0.274163	0.386748
0	N	0.274875	0.427192	0.613026
0	N	0.780081	0.624322	0.113038
0	N	0.932918	0.278116	0.863564
0	N	0.122067	0.774425	0.363357
0	O	0.487554	0.850471	0.109111
0	O	0.568381	0.201461	0.60846
0	O	0.707149	0.984735	0.85951
0	O	0.347584	0.0683723	0.358886
0	O	0.0686556	0.347176	0.640922
0	O	0.986393	0.704721	0.140924
0	O	0.852223	0.484891	0.891154
0	O	0.202558	0.567769	0.391001
0	O	0.210576	0.181696	0.130298
0	O	0.844726	0.870552	0.630192
0	O	0.375568	0.708058	0.880808
0	O	0.678903	0.344658	0.380575
0	O	0.345373	0.677711	0.619126
0	O	0.710073	0.373735	0.119175
0	O	0.183902	0.208476	0.869727
0	O	0.871138	0.844275	0.369507
0	O	0.461756	0.489751	0.116893
0	O	0.59403	0.561843	0.617006
0	O	0.0672809	0.960032	0.867119
0	O	0.987569	0.0930333	0.366953
0	O	0.0940926	0.986071	0.632662
0	O	0.961783	0.0658349	0.132936
0	O	0.492388	0.460091	0.883189
0	O	0.562337	0.592984	0.382796
0	O	0.585451	0.0377142	0.113946
0	O	0.47107	0.0136185	0.612843
0	O	0.518997	0.0817902	0.864191
0	O	0.53599	0.971567	0.363328
0	O	0.971693	0.535127	0.636468
0	O	0.0835843	0.516924	0.136402
0	O	0.0402391	0.582053	0.886475
0	O	0.0145128	0.470673	0.38633
0	H	0.557553	0.467395	0.11654
0	H	0.498239	0.584146	0.616612
0	H	0.0901884	0.0554091	0.866823
0	H	0.96472	0.99764	0.366644
0	H	0.998378	0.96369	0.632991
0	H	0.0574334	0.0884819	0.133238
0	H	0.469434	0.555518	0.883522
0	H	0.585099	0.49752	0.383152
