#******************************************
#
# CIF file created by Zeo++
# Zeo++ is an open source package to
# analyze microporous materials
#
#*******************************************

_cell_length_a		14.6324(0)
_cell_length_b		16.0573(0)
_cell_length_c		23.2138(0)
_cell_angle_alpha		90(0)
_cell_angle_beta		99.5808(0)
_cell_angle_gamma		90(0)

_symmetry_space_group_name_H-M		'P1'
_symmetry_Int_Tables_number		1
_symmetry_cell_setting		Monoclinic

loop_
_symmetry_equiv_pos_as_xyz
'+x,+y,+z'

loop_
_atom_site_label
_atom_site_type_symbol
_atom_site_fract_x
_atom_site_fract_y
_atom_site_fract_z
0	Si	0.64068	0.342686	0.0546541
0	Si	0.84935	0.854601	0.485271
0	Si	0.364824	0.700131	0.00196475
0	Si	0.157557	0.187673	0.571796
0	Si	0.145323	0.296436	0.0404216
0	Si	0.34907	0.814588	0.501701
0	Si	0.860786	0.74736	0.016395
0	Si	0.658104	0.228574	0.555531
0	O	0.683533	0.379611	0.117141
0	O	0.808889	0.886609	0.421015
0	O	0.321989	0.663445	0.939401
0	O	0.197761	0.156042	0.636171
0	O	0.18278	0.268782	0.106059
0	O	0.315735	0.781322	0.436987
0	O	0.823929	0.774691	0.950646
0	O	0.690499	0.262403	0.620169
0	O	0.765921	0.522969	0.33769
0	O	0.730417	0.0241823	0.198562
0	O	0.240043	0.520402	0.718726
0	O	0.276324	0.0192536	0.858856
0	O	0.255577	0.140278	0.331468
0	O	0.249428	0.643309	0.214745
0	O	0.750559	0.903806	0.725393
0	O	0.756759	0.400282	0.842343
0	O	0.494978	0.369999	0.192139
0	O	0.997376	0.871265	0.347721
0	O	0.51166	0.673736	0.864881
0	O	0.00930575	0.173178	0.708991
0	O	0.998987	0.284253	0.199748
0	O	0.497747	0.78242	0.336401
0	O	0.00702055	0.759437	0.856717
0	O	0.508675	0.261296	0.720868
0	O	0.176185	0.407512	0.267151
0	O	0.318065	0.907499	0.275491
0	O	0.830119	0.63541	0.789974
0	O	0.688555	0.136449	0.781807
0	O	0.672341	0.249126	0.267097
0	O	0.818628	0.753009	0.269542
0	O	0.33438	0.794868	0.7902
0	O	0.188087	0.290651	0.787679
0	O	0.54115	0.183565	0.268105
0	O	0.949434	0.684684	0.277454
0	O	0.465582	0.860262	0.788857
0	O	0.0573921	0.359199	0.779661
0	O	0.0472306	0.474631	0.271509
0	O	0.445639	0.977065	0.27191
0	O	0.959096	0.568541	0.785185
0	O	0.561146	0.0665744	0.78533
0	O	0.157733	0.0262333	0.335316
0	O	0.352525	0.531925	0.214271
0	O	0.848277	0.017947	0.721503
0	O	0.653617	0.511551	0.842999
0	O	0.666855	0.636715	0.339072
0	O	0.833303	0.134901	0.195785
0	O	0.339178	0.406692	0.717338
0	O	0.173735	0.908338	0.861824
0	C	0.255845	0.152617	0.269365
0	C	0.244981	0.653226	0.276685
0	C	0.750563	0.891049	0.787486
0	C	0.761414	0.390918	0.780388
0	H	0.297515	0.101424	0.25403
0	H	0.204879	0.600029	0.290461
0	H	0.708951	0.942111	0.803041
0	H	0.801521	0.444299	0.766882
0	C	0.763986	0.507488	0.27573
0	C	0.731107	0.0112582	0.260767
0	C	0.241939	0.535985	0.780674
0	C	0.275479	0.032069	0.796624
0	H	0.805529	0.5574	0.258667
0	H	0.690727	0.062747	0.276813
0	H	0.200393	0.486069	0.797742
0	H	0.315727	0.980506	0.780563
0	C	0.661909	0.510724	0.24634
0	C	0.83324	0.0130683	0.290232
0	C	0.344014	0.532783	0.810082
0	C	0.173291	0.0303253	0.76726
0	H	0.634321	0.574109	0.252016
0	H	0.862538	0.0756308	0.283886
0	H	0.371633	0.469412	0.804378
0	H	0.143942	0.967832	0.773746
0	H	0.620407	0.468389	0.270169
0	H	0.873709	0.969074	0.266935
0	H	0.385496	0.575187	0.786292
0	H	0.132934	0.0744719	0.790505
0	C	0.154274	0.149341	0.239151
0	C	0.345929	0.652859	0.308278
0	C	0.852209	0.894216	0.817559
0	C	0.660495	0.391392	0.748703
0	H	0.112684	0.19423	0.261031
0	H	0.386969	0.696811	0.285289
0	H	0.893649	0.849314	0.795608
0	H	0.619358	0.347535	0.771694
0	H	0.125154	0.0870104	0.246347
0	H	0.376389	0.590427	0.303417
0	H	0.88138	0.956537	0.810379
0	H	0.630121	0.453867	0.753539
0	C	0.143943	0.169273	0.174202
0	C	0.355647	0.676739	0.372553
0	C	0.862633	0.874206	0.882509
0	C	0.650626	0.367413	0.684431
0	H	0.172763	0.119446	0.149734
0	H	0.328442	0.627897	0.398579
0	H	0.83385	0.92399	0.90702
0	H	0.677659	0.41622	0.658299
0	H	0.0690069	0.174217	0.155043
0	H	0.430237	0.684366	0.391523
0	H	0.937617	0.869277	0.901639
0	H	0.575999	0.359703	0.665573
0	C	0.649004	0.486729	0.181948
0	C	0.845463	0.990721	0.354852
0	C	0.356825	0.556675	0.874486
0	C	0.160989	0.0524083	0.702593
0	H	0.573633	0.481789	0.163646
0	H	0.920684	0.98553	0.37336
0	H	0.432165	0.561642	0.892846
0	H	0.0857615	0.0576751	0.684125
0	H	0.677278	0.534391	0.155418
0	H	0.817357	0.0393185	0.380723
0	H	0.328526	0.508924	0.900947
0	H	0.188953	0.00364786	0.676788
0	C	0.695027	0.401888	0.176413
0	C	0.798777	0.906449	0.361319
0	C	0.3107	0.641429	0.880092
0	C	0.207811	0.136569	0.695917
0	H	0.65848	0.351859	0.197697
0	H	0.835742	0.855378	0.341378
0	H	0.347293	0.691596	0.858955
0	H	0.170879	0.187806	0.715716
0	C	0.191124	0.252964	0.166312
0	C	0.30593	0.759848	0.377549
0	C	0.815511	0.790504	0.890391
0	C	0.700411	0.284319	0.679526
0	H	0.153158	0.305233	0.184262
0	H	0.340671	0.811422	0.35661
0	H	0.853444	0.738233	0.87243
0	H	0.665877	0.232837	0.700697
0	C	0.296217	0.253572	0.194884
0	C	0.200438	0.754775	0.350248
0	C	0.710395	0.789865	0.861866
0	C	0.80598	0.289722	0.706633
0	C	0.801011	0.403144	0.202753
0	C	0.693043	0.907174	0.334335
0	C	0.204776	0.640237	0.853646
0	C	0.313554	0.1359	0.722896
0	C	0.333798	0.341293	0.18587
0	C	0.158241	0.84066	0.358561
0	C	0.672874	0.702101	0.870811
0	C	0.848481	0.204071	0.698051
0	H	0.328553	0.354973	0.138441
0	H	0.158968	0.852551	0.406331
0	H	0.678378	0.688211	0.918226
0	H	0.847986	0.19269	0.650232
0	H	0.290313	0.390119	0.202443
0	H	0.201824	0.891759	0.344671
0	H	0.716181	0.653319	0.854034
0	H	0.804923	0.152661	0.71154
0	C	0.838675	0.315544	0.194675
0	C	0.656454	0.818888	0.34175
0	C	0.167173	0.727878	0.861751
0	C	0.350104	0.224172	0.715316
0	H	0.795365	0.266923	0.211803
0	H	0.700361	0.770804	0.324433
0	H	0.21054	0.7765	0.844651
0	H	0.306031	0.272326	0.732425
0	H	0.832244	0.300212	0.146945
0	H	0.663088	0.802923	0.389409
0	H	0.173636	0.743201	0.909485
0	H	0.343604	0.23986	0.667616
0	C	0.431621	0.348944	0.216643
0	C	0.06217	0.848066	0.325243
0	C	0.574914	0.694645	0.840237
0	C	0.944482	0.196443	0.73142
0	C	0.936653	0.307755	0.224361
0	C	0.558726	0.809788	0.312074
0	C	0.0692445	0.735742	0.832077
0	C	0.447722	0.233621	0.745098
0	C	0.954404	0.326523	0.290744
0	C	0.538722	0.832241	0.246258
0	C	0.0513072	0.716831	0.765704
0	C	0.467677	0.211222	0.810919
0	C	0.447413	0.332513	0.283302
0	C	0.04963	0.829034	0.259021
0	C	0.558932	0.711137	0.773575
0	C	0.956781	0.215076	0.797675
0	C	0.0602752	0.332524	0.311007
0	C	0.432533	0.837691	0.227632
0	C	0.945392	0.710584	0.745659
0	C	0.573853	0.205959	0.829613
0	H	0.0775962	0.33707	0.359247
0	H	0.413269	0.844801	0.17945
0	H	0.92783	0.705977	0.697434
0	H	0.593031	0.198749	0.877807
0	H	0.0938464	0.273007	0.299206
0	H	0.400002	0.777112	0.238089
0	H	0.911746	0.770042	0.757509
0	H	0.606308	0.266591	0.819229
0	C	0.552803	0.326644	0.305583
0	C	0.944888	0.825298	0.234836
0	C	0.45353	0.717178	0.751433
0	C	0.0614515	0.218561	0.82213
0	H	0.587382	0.385617	0.293776
0	H	0.911309	0.885723	0.244747
0	H	0.418878	0.658258	0.763263
0	H	0.0949513	0.158068	0.812307
0	H	0.567504	0.323659	0.354018
0	H	0.931851	0.820365	0.186305
0	H	0.438677	0.720224	0.703
0	H	0.0740572	0.223427	0.870651
0	C	0.595416	0.253849	0.27997
0	C	0.89801	0.755165	0.260486
0	C	0.411168	0.790037	0.777145
0	C	0.10865	0.288629	0.796645
0	C	0.101086	0.404025	0.282733
0	C	0.392391	0.906506	0.258752
0	C	0.904996	0.639023	0.774108
0	C	0.614191	0.137258	0.7985
0	C	0.968298	0.485921	0.301459
0	C	0.523465	0.992058	0.241487
0	C	0.0375968	0.557485	0.754802
0	C	0.483249	0.0514268	0.815661
0	H	0.93021	0.536626	0.274917
0	H	0.562294	0.0407216	0.269654
0	H	0.0758792	0.506525	0.780976
0	H	0.444514	0.00282047	0.787403
0	H	0.998094	0.511921	0.344644
0	H	0.492114	0.0218355	0.19988
0	H	0.0073427	0.531918	0.711577
0	H	0.514543	0.0215222	0.857234
0	C	0.460692	0.173536	0.296945
0	C	0.035608	0.66913	0.255679
0	C	0.545853	0.870105	0.759819
0	C	0.971074	0.374848	0.80128
0	H	0.489041	0.149019	0.340816
0	H	0.0139853	0.633259	0.214924
0	H	0.51733	0.894457	0.715929
0	H	0.992607	0.410699	0.842053
0	H	0.423541	0.121989	0.270883
0	H	0.0707339	0.625405	0.289255
0	H	0.583142	0.921726	0.785739
0	H	0.936149	0.418567	0.767639
0	C	0.398468	0.251062	0.299997
0	C	0.0968712	0.744967	0.246063
0	C	0.607987	0.792505	0.756807
0	C	0.909626	0.299105	0.810779
0	C	0.906417	0.408833	0.306852
0	C	0.58495	0.916278	0.231821
0	C	0.0994615	0.634626	0.749539
0	C	0.421653	0.127102	0.825387
0	C	0.807913	0.420729	0.269667
0	C	0.685008	0.925722	0.267478
0	C	0.197963	0.622734	0.786738
0	C	0.321596	0.117563	0.789773
0	H	0.762763	0.372982	0.286784
0	H	0.727958	0.877092	0.24931
0	H	0.24311	0.670499	0.769651
0	H	0.278651	0.166265	0.807877
0	C	0.300734	0.238552	0.261899
0	C	0.195763	0.737238	0.283491
0	C	0.705781	0.805037	0.794851
0	C	0.810724	0.307004	0.7734
0	H	0.255219	0.287492	0.277501
0	H	0.23824	0.787496	0.266475
0	H	0.751287	0.756173	0.779174
0	H	0.76827	0.256647	0.790341
0	C	0.40972	0.411423	0.308565
0	C	0.0922909	0.9044	0.232546
0	C	0.596344	0.632111	0.748295
0	C	0.913844	0.139543	0.823757
0	H	0.432341	0.468432	0.288455
0	H	0.0734411	0.963604	0.251523
0	H	0.57361	0.575174	0.768441
0	H	0.932578	0.0804832	0.804524
0	H	0.431693	0.417046	0.35576
0	H	0.0711626	0.908389	0.185172
0	H	0.574255	0.626502	0.701107
0	H	0.934864	0.13512	0.871114
0	H	0.333238	0.412983	0.29979
0	H	0.168784	0.901925	0.241403
0	H	0.672826	0.630381	0.757027
0	H	0.837354	0.14216	0.814825
0	C	0.917091	0.248505	0.317506
0	C	0.575366	0.756646	0.216487
0	C	0.0881897	0.794929	0.7388
0	C	0.430771	0.286759	0.84062
0	H	0.93817	0.19094	0.297547
0	H	0.549867	0.697681	0.23219
0	H	0.0660549	0.852438	0.758296
0	H	0.456105	0.345754	0.82486
0	H	0.840615	0.24803	0.310269
0	H	0.651756	0.753767	0.225669
0	H	0.16465	0.796078	0.746441
0	H	0.354376	0.289454	0.831421
0	H	0.941111	0.243891	0.364632
0	H	0.554436	0.757702	0.168934
0	H	0.0647419	0.798972	0.691588
0	H	0.451685	0.285797	0.888172
0	C	0.385839	0.258649	0.36453
0	C	0.106231	0.74344	0.180915
0	C	0.620578	0.78483	0.692269
0	C	0.900114	0.300368	0.875901
0	H	0.361917	0.199486	0.381021
0	H	0.119679	0.680049	0.166289
0	H	0.645143	0.843805	0.675865
0	H	0.886612	0.363693	0.890617
0	H	0.332324	0.304401	0.370114
0	H	0.165957	0.780188	0.171896
0	H	0.673586	0.738629	0.686614
0	H	0.840312	0.263565	0.884736
0	H	0.449856	0.276531	0.393299
0	H	0.0439522	0.766715	0.152214
0	H	0.556384	0.767517	0.663462
0	H	0.962302	0.27696	0.904617
0	C	0.896108	0.403975	0.371952
0	C	0.590329	0.917157	0.165997
0	C	0.109869	0.639558	0.684464
0	C	0.416334	0.126209	0.891215
0	H	0.872772	0.463896	0.387559
0	H	0.607113	0.979774	0.151431
0	H	0.133353	0.579672	0.668873
0	H	0.400017	0.0635086	0.905849
0	H	0.960966	0.38701	0.400044
0	H	0.525543	0.897255	0.139074
0	H	0.0450163	0.656401	0.656324
0	H	0.480966	0.146526	0.918121
0	H	0.843003	0.358919	0.379496
0	H	0.646531	0.877158	0.155182
0	H	0.162918	0.684698	0.676951
0	H	0.359786	0.165877	0.901968
0	C	0.250604	0.0557376	0.349508
0	C	0.260112	0.56016	0.195556
0	C	0.755362	0.988479	0.70758
0	C	0.745943	0.483215	0.861899
0	H	0.289335	0.0126105	0.324901
0	H	0.218673	0.514498	0.21623
0	H	0.716922	0.0314208	0.732505
0	H	0.787666	0.529088	0.841638
0	H	0.274992	0.0585443	0.397004
0	H	0.242906	0.565381	0.147375
0	H	0.730511	0.985975	0.660129
0	H	0.762702	0.477462	0.910092
0	C	0.759966	0.608437	0.353583
0	C	0.739375	0.108572	0.181273
0	C	0.246031	0.434895	0.702924
0	C	0.267591	0.934877	0.876243
0	H	0.784905	0.608244	0.401016
0	H	0.715109	0.107196	0.133726
0	H	0.220924	0.434972	0.65551
0	H	0.291952	0.936358	0.923779
0	H	0.797721	0.650431	0.327588
0	H	0.702504	0.152755	0.206223
0	H	0.208417	0.39294	0.729025
0	H	0.304497	0.890709	0.851298
0	C	0.0937969	0.0583616	0.37088
0	C	0.423852	0.570511	0.187361
0	C	0.911699	0.98626	0.685427
0	C	0.582056	0.472596	0.869495
0	H	0.031502	0.0194944	0.358091
0	H	0.463382	0.518175	0.172855
0	H	0.974204	0.0248654	0.69826
0	H	0.543065	0.524629	0.884856
0	H	0.079961	0.124044	0.360507
0	H	0.467167	0.607255	0.221324
0	H	0.925428	0.920425	0.695297
0	H	0.538317	0.437095	0.835022
0	H	0.121231	0.0496888	0.417324
0	H	0.39482	0.611113	0.150598
0	H	0.883853	0.995601	0.639108
0	H	0.610819	0.430726	0.905576
0	C	0.602634	0.604322	0.374307
0	C	0.89678	0.100473	0.160811
0	C	0.403158	0.438816	0.681833
0	C	0.110111	0.942942	0.896628
0	H	0.540454	0.642933	0.360691
0	H	0.959356	0.139281	0.173026
0	H	0.465304	0.400084	0.695312
0	H	0.0476934	0.903876	0.884599
0	H	0.628973	0.613326	0.42079
0	H	0.869655	0.10726	0.114238
0	H	0.376462	0.429765	0.635402
0	H	0.137279	0.936697	0.943233
0	H	0.589473	0.538508	0.364136
0	H	0.909966	0.0350974	0.172466
0	H	0.41658	0.504622	0.691919
0	H	0.0966565	0.00817001	0.884639
0	C	0.57881	0.243339	0.0641108
0	C	0.921098	0.759882	0.479961
0	C	0.426715	0.7995	0.992592
0	C	0.0865074	0.282946	0.576759
0	H	0.626059	0.19368	0.0828522
0	H	0.879257	0.707006	0.460834
0	H	0.379302	0.849231	0.974172
0	H	0.128772	0.335594	0.595872
0	H	0.540086	0.221821	0.0221033
0	H	0.958399	0.741755	0.523174
0	H	0.465916	0.820799	0.0345143
0	H	0.0496812	0.301111	0.533434
0	H	0.528971	0.254624	0.0941297
0	H	0.972631	0.773904	0.451539
0	H	0.476102	0.788346	0.96226
0	H	0.034651	0.269555	0.605069
0	C	0.0394985	0.235374	0.0107307
0	C	0.451835	0.754288	0.537751
0	C	0.966358	0.808604	0.0463486
0	C	0.554298	0.287393	0.519345
0	H	0.0512335	0.168201	0.0166032
0	H	0.43609	0.687619	0.53942
0	H	0.954499	0.875761	0.0405289
0	H	0.568785	0.354291	0.517514
0	H	0.0188989	0.24866	0.963591
0	H	0.473499	0.777575	0.582552
0	H	0.986786	0.795196	0.0934806
0	H	0.53279	0.2638	0.474625
0	H	0.98071	0.252662	0.0327955
0	H	0.511066	0.761713	0.514046
0	H	0.025304	0.791476	0.02437
0	H	0.495353	0.279134	0.543218
0	C	0.557039	0.419193	0.015215
0	C	0.922868	0.937461	0.525747
0	C	0.448494	0.623414	0.0411414
0	C	0.0834816	0.104947	0.531607
0	H	0.504528	0.434792	0.0425372
0	H	0.979431	0.954174	0.501937
0	H	0.500772	0.60802	0.0135964
0	H	0.0265243	0.0891009	0.555314
0	H	0.520686	0.39276	0.974065
0	H	0.953957	0.914868	0.569322
0	H	0.485112	0.649582	0.0823063
0	H	0.0528576	0.127245	0.487862
0	H	0.591111	0.477511	0.00597511
0	H	0.882953	0.994297	0.530475
0	H	0.414495	0.565025	0.0502865
0	H	0.122833	0.047632	0.527277
0	C	0.116736	0.40962	0.0394816
0	C	0.381196	0.926724	0.499231
0	C	0.889515	0.634186	0.0177786
0	C	0.627959	0.115997	0.558019
0	H	0.06997	0.423136	0.0708551
0	H	0.429669	0.936176	0.468287
0	H	0.936182	0.620405	0.986392
0	H	0.577867	0.105984	0.587854
0	H	0.0816954	0.428272	0.995721
0	H	0.415816	0.946859	0.542793
0	H	0.924703	0.615926	0.0615911
0	H	0.595773	0.0950962	0.514109
0	H	0.179259	0.448015	0.0510834
0	H	0.320772	0.967201	0.485922
0	H	0.827042	0.595671	0.00640545
0	H	0.688812	0.0765978	0.572661
0	C	0.701899	0.296816	0.949861
0	C	0.785173	0.806029	0.588494
0	C	0.303597	0.745452	0.106798
0	C	0.221845	0.235223	0.468446
0	H	0.758137	0.282545	0.925085
0	H	0.728806	0.785513	0.610932
0	H	0.247408	0.759906	0.131566
0	H	0.27826	0.255192	0.445865
0	H	0.661452	0.347393	0.925511
0	H	0.81858	0.858758	0.613666
0	H	0.343642	0.694572	0.131044
0	H	0.188029	0.182508	0.443472
0	H	0.657523	0.241523	0.948056
0	H	0.835313	0.754916	0.591362
0	H	0.348353	0.800502	0.108806
0	H	0.172034	0.286612	0.465439
0	C	0.335828	0.300086	0.0253354
0	C	0.166412	0.856643	0.518653
0	C	0.670224	0.74179	0.031093
0	C	0.842535	0.190543	0.539195
0	H	0.388898	0.289958	0.997844
0	H	0.104006	0.841572	0.536997
0	H	0.616723	0.751993	0.0582599
0	H	0.904603	0.207326	0.521015
0	H	0.356131	0.262883	0.0654319
0	H	0.147646	0.849549	0.470738
0	H	0.649452	0.777638	0.990429
0	H	0.860798	0.198006	0.587107
0	H	0.339837	0.365899	0.0381262
0	H	0.181356	0.922749	0.527653
0	H	0.667557	0.675599	0.0193094
0	H	0.829901	0.124081	0.53038
0	C	0.800894	0.402246	0.012296
0	C	0.684055	0.907448	0.523652
0	C	0.204306	0.640593	0.0439558
0	C	0.322852	0.134049	0.533561
0	H	0.865421	0.388939	0.995831
0	H	0.623165	0.894229	0.543989
0	H	0.139927	0.653821	0.0606102
0	H	0.383661	0.147027	0.513089
0	H	0.820868	0.428647	0.0565946
0	H	0.658057	0.928098	0.478435
0	H	0.18403	0.614758	0.999507
0	H	0.348967	0.11373	0.578838
0	H	0.764405	0.451103	0.984287
0	H	0.720207	0.960506	0.546953
0	H	0.240732	0.591336	0.0715644
0	H	0.286633	0.0808117	0.510515
0	C	0.21623	0.328053	0.936637
0	C	0.280843	0.823406	0.6093
0	C	0.789866	0.717789	0.120426
0	C	0.727728	0.22038	0.448261
0	H	0.259877	0.309327	0.904708
0	H	0.22386	0.816082	0.634187
0	H	0.744986	0.736257	0.15171
0	H	0.784269	0.230439	0.423374
0	H	0.229348	0.394534	0.945435
0	H	0.303841	0.888399	0.614363
0	H	0.77901	0.650835	0.112577
0	H	0.708506	0.154417	0.443456
0	H	0.143923	0.321598	0.915355
0	H	0.337652	0.783549	0.630071
0	H	0.861694	0.726551	0.142051
0	H	0.668728	0.257601	0.42732
0	C	0.804139	0.251859	0.042234
0	C	0.688345	0.756907	0.49505
0	C	0.201641	0.79116	0.0144748
0	C	0.318655	0.284758	0.561781
0	H	0.868288	0.246997	0.0233319
0	H	0.622759	0.750643	0.512235
0	H	0.137375	0.796019	0.0332582
0	H	0.384178	0.290972	0.544517
0	H	0.769672	0.191229	0.0372613
0	H	0.725018	0.697449	0.501832
0	H	0.236285	0.851701	0.0197194
0	H	0.281946	0.344192	0.55494
0	H	0.826637	0.263041	0.0895012
0	H	0.668644	0.766554	0.44742
0	H	0.179342	0.780316	0.967147
0	H	0.338459	0.275267	0.609422
0	C	0.23984	0.182308	0.976793
0	C	0.216113	0.708386	0.541076
0	C	0.763802	0.862061	0.0780665
0	C	0.787789	0.337421	0.516047
0	H	0.292367	0.169987	0.94881
0	H	0.158837	0.698779	0.565313
0	H	0.710934	0.874449	0.10577
0	H	0.844601	0.348749	0.49172
0	H	0.173543	0.160947	0.952313
0	H	0.271762	0.665511	0.559199
0	H	0.829649	0.884835	0.102327
0	H	0.730532	0.378604	0.497818
0	H	0.256668	0.142581	0.0155056
0	H	0.191045	0.689289	0.495443
0	H	0.746435	0.900524	0.0387593
0	H	0.812199	0.357251	0.5616
0	C	0.741769	0.322743	0.0131181
0	C	0.746732	0.830021	0.52452
0	C	0.263699	0.719982	0.0434576
0	C	0.260254	0.211545	0.532481
0	C	0.238921	0.275455	0.993124
0	C	0.248336	0.80009	0.544423
0	C	0.766507	0.768517	0.0631356
0	C	0.75886	0.244814	0.513052
0	C	0.350744	0.189427	0.165427
0	C	0.150851	0.689073	0.381659
0	C	0.655826	0.85386	0.891431
0	C	0.855076	0.355839	0.675256
0	H	0.344503	0.203677	0.118175
0	H	0.169452	0.696845	0.429692
0	H	0.661772	0.839205	0.938604
0	H	0.835534	0.348811	0.627222
0	H	0.324817	0.126029	0.168773
0	H	0.170048	0.625468	0.371753
0	H	0.68196	0.917249	0.888393
0	H	0.836357	0.419328	0.685799
0	H	0.424916	0.189947	0.183563
0	H	0.0752013	0.694634	0.371025
0	H	0.581723	0.85358	0.873157
0	H	0.930749	0.350027	0.685288
0	C	0.852714	0.466355	0.170632
0	C	0.640893	0.9693	0.367016
0	C	0.152887	0.577003	0.885628
0	C	0.365687	0.0736546	0.690306
0	H	0.839362	0.453296	0.123014
0	H	0.655045	0.955933	0.414602
0	H	0.166093	0.589967	0.933258
0	H	0.351421	0.0867725	0.642684
0	H	0.927975	0.463668	0.184872
0	H	0.565544	0.965478	0.353547
0	H	0.0776582	0.579749	0.871295
0	H	0.44105	0.0775936	0.703699
0	H	0.830237	0.530477	0.176078
0	H	0.662346	0.0336861	0.36161
0	H	0.175321	0.512864	0.880139
0	H	0.344341	0.00928214	0.695877
