#******************************************
#
# CIF file created by Zeo++
# Zeo++ is an open source package to
# analyze microporous materials
#
#*******************************************

_cell_length_a		9.80886(0)
_cell_length_b		14.2485(0)
_cell_length_c		17.2069(0)
_cell_angle_alpha		90(0)
_cell_angle_beta		116.734(0)
_cell_angle_gamma		90(0)

_symmetry_space_group_name_H-M		'P1'
_symmetry_Int_Tables_number		1
_symmetry_cell_setting		Monoclinic

loop_
_symmetry_equiv_pos_as_xyz
'+x,+y,+z'

loop_
_atom_site_label
_atom_site_type_symbol
_atom_site_fract_x
_atom_site_fract_y
_atom_site_fract_z
0	O	0.495027	0.337745	0.429232
0	O	0.524135	0.340616	0.0735221
0	O	0.524146	0.659623	0.573563
0	O	0.495107	0.663135	0.929141
0	O	0.809436	0.90977	0.12603
0	O	0.208165	0.908921	0.377739
0	O	0.212102	0.0915629	0.878925
0	O	0.813352	0.0908342	0.626982
0	N	0.923484	0.581797	0.886794
0	N	0.07749	0.578056	0.615173
0	N	0.0756773	0.422544	0.115128
0	N	0.921492	0.418708	0.386562
0	H	0.973583	0.540757	0.941327
0	H	0.0346475	0.538255	0.560126
0	H	0.0329941	0.462299	0.0600349
0	H	0.971835	0.45985	0.440974
0	N	0.899512	0.383674	0.926182
0	N	0.122013	0.383061	0.57161
0	N	0.121262	0.617681	0.0715569
0	N	0.898435	0.6166	0.425955
0	C	0.970623	0.675301	0.882578
0	C	0.0492341	0.673574	0.619072
0	C	0.0477082	0.326983	0.119099
0	C	0.968759	0.325223	0.382467
0	C	0.896319	0.700599	0.788391
0	C	0.129934	0.701823	0.70754
0	C	0.128335	0.298831	0.20758
0	C	0.894275	0.299749	0.28831
0	C	0.823283	0.624701	0.741237
0	C	0.204365	0.622886	0.756755
0	C	0.202602	0.377831	0.256752
0	C	0.82121	0.375579	0.241044
0	C	0.844201	0.54454	0.801319
0	C	0.171809	0.545456	0.699106
0	C	0.169867	0.455236	0.199049
0	C	0.842058	0.455816	0.301025
0	C	0.795963	0.454419	0.778762
0	C	0.225412	0.449982	0.721735
0	C	0.223366	0.55073	0.221671
0	C	0.793741	0.545924	0.278501
0	C	0.817435	0.378893	0.839636
0	C	0.206346	0.378603	0.66517
0	C	0.20466	0.622101	0.165145
0	C	0.815474	0.621396	0.339469
0	C	0.747335	0.283926	0.812295
0	C	0.268119	0.281601	0.688601
0	C	0.266517	0.719073	0.188764
0	C	0.744989	0.716293	0.312354
0	C	0.788642	0.232887	0.885725
0	C	0.224222	0.23287	0.613701
0	C	0.223761	0.767787	0.113948
0	C	0.7872	0.767312	0.385879
0	C	0.886624	0.29358	0.960639
0	C	0.131456	0.298133	0.541075
0	C	0.13163	0.702548	0.0411944
0	C	0.886125	0.706673	0.460614
0	C	0.9507	0.268902	0.0460635
0	C	0.0615476	0.270112	0.450473
0	C	0.0630639	0.730515	0.950594
0	C	0.951593	0.731453	0.546035
0	C	0.718453	0.428974	0.685327
0	C	0.304654	0.428641	0.816346
0	C	0.302746	0.57203	0.316294
0	C	0.716536	0.571463	0.185102
0	C	0.804657	0.417497	0.639535
0	C	0.217752	0.419976	0.862081
0	C	0.216331	0.58085	0.362291
0	C	0.80333	0.58278	0.13961
0	H	0.927332	0.430964	0.671708
0	H	0.095283	0.434517	0.82939
0	H	0.093799	0.566544	0.329811
0	H	0.925902	0.56909	0.17201
0	C	0.735526	0.388478	0.552665
0	C	0.285645	0.391905	0.949086
0	C	0.284863	0.60883	0.449373
0	C	0.734818	0.611876	0.0527937
0	C	0.57829	0.371205	0.512676
0	C	0.442767	0.37361	0.989779
0	C	0.442044	0.626806	0.489812
0	C	0.577643	0.629451	0.0125523
0	C	0.488278	0.385377	0.5566
0	C	0.533593	0.386119	0.946117
0	C	0.532364	0.614186	0.445857
0	C	0.487051	0.615308	0.0561295
0	C	0.55941	0.414304	0.642824
0	C	0.463392	0.413558	0.859378
0	C	0.461605	0.586891	0.359111
0	C	0.557597	0.586297	0.142363
0	C	0.574967	0.32373	0.376849
0	C	0.441449	0.325136	0.124306
0	C	0.442416	0.675073	0.624869
0	C	0.575846	0.676995	0.877159
0	H	0.482799	0.29866	0.315234
0	H	0.531463	0.297905	0.185567
0	H	0.53303	0.70217	0.685989
0	H	0.484309	0.702456	0.8155
0	H	0.663855	0.270505	0.40656
0	H	0.351318	0.273022	0.0926129
0	H	0.352275	0.727272	0.593558
0	H	0.665181	0.729883	0.907268
0	H	0.621789	0.39043	0.367992
0	H	0.395662	0.391603	0.134513
0	H	0.396798	0.608608	0.63521
0	H	0.622238	0.610158	0.868244
0	C	0.919196	0.173495	0.0690161
0	C	0.0969965	0.17413	0.431689
0	C	0.0991646	0.826399	0.931914
0	C	0.920914	0.826977	0.569182
0	C	0.787422	0.157967	0.0804184
0	C	0.229954	0.157847	0.421603
0	C	0.232298	0.842487	0.921943
0	C	0.78919	0.842851	0.580557
0	C	0.754942	0.0686894	0.0998851
0	C	0.263418	0.0681329	0.403635
0	C	0.266374	0.932178	0.904317
0	C	0.757419	0.932143	0.600218
0	H	0.653424	0.0545084	0.10823
0	H	0.365542	0.0536167	0.395921
0	H	0.368571	0.946523	0.896718
0	H	0.656011	0.946676	0.6087
0	C	0.855933	0.994405	0.107921
0	C	0.162166	0.994058	0.395638
0	C	0.165528	0.00642162	0.8965
0	C	0.859179	0.00611457	0.608618
0	C	0.988199	0.00895481	0.0976986
0	C	0.0298576	0.00895588	0.405597
0	C	0.0330329	0.991742	0.906321
0	C	0.991353	0.991247	0.598388
0	H	0.0663028	0.951918	0.104607
0	H	0.951889	0.952046	0.399267
0	H	0.955373	0.0487601	0.900094
0	H	0.0700509	0.0480821	0.605495
0	C	0.0190144	0.0993242	0.078405
0	C	0.998294	0.0997738	0.423666
0	C	0.000907235	0.90094	0.92408
0	C	0.0214102	0.900789	0.578799
0	C	0.898931	0.827142	0.130439
0	C	0.115151	0.827368	0.371037
0	C	0.119108	0.173202	0.87197
0	C	0.903224	0.173258	0.631346
0	H	0.834722	0.771667	0.14406
0	H	0.178076	0.771269	0.357244
0	H	0.18221	0.229171	0.858161
0	H	0.83922	0.228926	0.644935
0	H	0.0147631	0.833843	0.183296
0	H	0.000267756	0.835895	0.317553
0	H	0.00430872	0.164664	0.818413
0	H	0.019015	0.166402	0.684222
0	H	0.899759	0.814811	0.0678754
0	H	0.111752	0.814353	0.43281
0	H	0.115489	0.186403	0.933656
0	H	0.904124	0.185433	0.568779
0	H	0.491923	0.425234	0.678053
0	H	0.531638	0.422801	0.824324
0	H	0.529421	0.577547	0.323804
0	H	0.489654	0.575402	0.177312
0	H	0.757508	0.617792	0.671209
0	H	0.274051	0.619917	0.82632
0	H	0.272378	0.380841	0.326323
0	H	0.755509	0.382409	0.17096
0	H	0.905617	0.770057	0.766104
0	H	0.131536	0.771671	0.731512
0	H	0.130043	0.228948	0.231576
0	H	0.903581	0.230158	0.266108
0	H	0.759494	0.161829	0.893349
0	H	0.248907	0.161679	0.603744
0	H	0.248884	0.838934	0.104142
0	H	0.758104	0.838329	0.393677
0	H	0.365468	0.373704	0.522447
0	H	0.656343	0.374372	0.980588
0	H	0.655191	0.625773	0.480128
0	H	0.364329	0.627174	0.0217565
0	H	0.677747	0.264087	0.745671
0	H	0.335969	0.25886	0.754702
0	H	0.333532	0.741788	0.254849
0	H	0.67461	0.73609	0.245868
0	H	0.804207	0.380618	0.517984
0	H	0.216136	0.385537	0.983446
0	H	0.215721	0.615297	0.483929
0	H	0.8039	0.619623	0.0183295
0	H	0.710114	0.216341	0.0734746
0	H	0.30708	0.216218	0.428087
0	H	0.309113	0.783967	0.928258
0	H	0.711356	0.784679	0.57331
0	H	0.121671	0.111716	0.0703465
0	H	0.895619	0.112324	0.431589
0	H	0.898067	0.888516	0.931866
0	H	0.12398	0.888107	0.570726
