#******************************************
#
# CIF file created by Zeo++
# Zeo++ is an open source package to
# analyze microporous materials
#
#*******************************************

_cell_length_a		6.49844(0)
_cell_length_b		26.2156(0)
_cell_length_c		26.3956(0)
_cell_angle_alpha		57.7757(0)
_cell_angle_beta		86.8289(0)
_cell_angle_gamma		86.6287(0)

_symmetry_space_group_name_H-M		'P1'
_symmetry_Int_Tables_number		1
_symmetry_cell_setting		Triclinic

loop_
_symmetry_equiv_pos_as_xyz
'+x,+y,+z'

loop_
_atom_site_label
_atom_site_type_symbol
_atom_site_fract_x
_atom_site_fract_y
_atom_site_fract_z
0	O	0.699839	0.834985	0.54719
0	O	0.86505	0.146069	0.495316
0	O	0.975585	0.864355	0.482103
0	O	0.588397	0.117181	0.560023
0	O	0.2229	0.60431	0.388707
0	O	0.342807	0.377319	0.653464
0	O	0.498168	0.630906	0.418225
0	O	0.0677695	0.35057	0.624017
0	O	0.711025	0.507725	0.663126
0	O	0.854604	0.474097	0.378996
0	O	0.976547	0.438208	0.698163
0	O	0.588488	0.543418	0.343905
0	O	0.184275	0.339498	0.0474535
0	O	0.380619	0.642031	0.994677
0	O	0.477377	0.376219	0.990685
0	O	0.0876037	0.605359	0.0514938
0	O	0.67451	0.620172	0.868477
0	O	0.889961	0.361258	0.173185
0	O	0.924486	0.652655	0.90052
0	O	0.63904	0.328695	0.141532
0	O	0.155494	0.009997	0.636901
0	O	0.41014	0.971362	0.405217
0	O	0.449082	0.951448	0.658779
0	O	0.116356	0.0298368	0.383287
0	O	0.259085	0.807574	0.465577
0	O	0.305222	0.173877	0.576723
0	O	0.0192997	0.732575	0.523731
0	O	0.544904	0.248913	0.518405
0	O	0.919895	0.671243	0.300119
0	O	0.645937	0.310251	0.742027
0	O	0.171332	0.740089	0.241515
0	O	0.394342	0.241482	0.800612
0	O	0.983737	0.476833	0.788859
0	O	0.581501	0.504795	0.253229
0	O	0.242197	0.425844	0.765613
0	O	0.323012	0.555801	0.276437
0	O	0.231202	0.192105	0.0663971
0	O	0.333697	0.789451	0.97568
0	O	0.935591	0.232462	0.0867624
0	O	0.629183	0.749089	0.955237
0	O	0.193868	0.724752	0.843309
0	O	0.369947	0.256532	0.198703
0	O	0.959847	0.749821	0.768216
0	O	0.603831	0.231536	0.273815
0	O	0.149341	0.0224211	0.766926
0	O	0.4153	0.958806	0.275288
0	O	0.874701	0.0476141	0.704015
0	O	0.690775	0.933776	0.337892
0	C	0.9758	0.888937	0.55501
0	C	0.588843	0.0923726	0.487251
0	C	0.864441	0.85912	0.53032
0	C	0.700088	0.122157	0.511998
0	C	0.905377	0.8331	0.454928
0	C	0.658841	0.148399	0.587225
0	H	0.892678	0.869037	0.40697
0	H	0.67148	0.112459	0.635186
0	H	0.750362	0.813549	0.47452
0	H	0.813905	0.167919	0.567629
0	C	0.0678183	0.78356	0.465568
0	C	0.496505	0.19796	0.576594
0	C	0.066252	0.766371	0.418727
0	C	0.498335	0.215212	0.623388
0	C	0.207693	0.789918	0.370192
0	C	0.356882	0.191743	0.67192
0	H	0.314875	0.823936	0.363398
0	H	0.249426	0.157786	0.678718
0	C	0.215676	0.768946	0.331254
0	C	0.349284	0.212713	0.710855
0	H	0.329488	0.785816	0.294419
0	H	0.235471	0.195906	0.747685
0	C	0.0798285	0.725186	0.340018
0	C	0.485471	0.25641	0.70208
0	C	0.104164	0.697137	0.302304
0	C	0.461509	0.284438	0.739822
0	C	0.26615	0.644521	0.32542
0	C	0.299619	0.337072	0.716747
0	H	0.245012	0.615179	0.307297
0	H	0.320873	0.366391	0.734885
0	H	0.42706	0.660404	0.316002
0	H	0.138675	0.32121	0.726161
0	C	0.336598	0.605577	0.430504
0	C	0.229234	0.376005	0.611677
0	C	0.223023	0.571866	0.489318
0	C	0.342614	0.409743	0.552841
0	C	0.327432	0.547279	0.542868
0	C	0.238093	0.434299	0.499319
0	H	0.496296	0.550078	0.542272
0	H	0.0692305	0.431471	0.499947
0	C	0.216512	0.518665	0.597462
0	C	0.348833	0.46294	0.444691
0	H	0.296213	0.498107	0.640128
0	H	0.26903	0.483477	0.402047
0	C	0.00160243	0.516093	0.597579
0	C	0.563734	0.465567	0.444527
0	C	0.87701	0.489627	0.654545
0	C	0.688279	0.492076	0.387555
0	C	0.895267	0.410157	0.759139
0	C	0.669876	0.571476	0.282937
0	H	0.886185	0.362024	0.773909
0	H	0.678949	0.619608	0.26817
0	H	0.737554	0.429867	0.759732
0	H	0.827586	0.551756	0.282358
0	C	0.0467812	0.420476	0.795248
0	C	0.518435	0.561165	0.246812
0	C	0.0502381	0.370208	0.861131
0	C	0.515027	0.611417	0.18092
0	C	0.206412	0.324963	0.88205
0	C	0.35896	0.656691	0.160009
0	H	0.315687	0.322482	0.850242
0	H	0.249746	0.659203	0.191818
0	C	0.225603	0.284204	0.943468
0	C	0.339712	0.697439	0.0985908
0	H	0.352633	0.250722	0.960268
0	H	0.212725	0.730936	0.081802
0	C	0.0838753	0.287132	0.983929
0	C	0.481191	0.694458	0.0581108
0	C	0.120685	0.247856	0.0505638
0	C	0.4442	0.733709	0.991484
0	C	0.257372	0.277428	0.0734691
0	C	0.307451	0.704099	0.968637
0	H	0.23688	0.257785	0.122643
0	H	0.327855	0.723721	0.919469
0	H	0.421987	0.274649	0.0616288
0	H	0.142855	0.706878	0.980492
0	C	0.303863	0.385267	0.00410654
0	C	0.260971	0.596272	0.0380103
0	C	0.183474	0.44351	0.978638
0	C	0.381146	0.538	0.0633992
0	C	0.966766	0.443781	0.981598
0	C	0.597854	0.537661	0.0605871
0	H	0.886388	0.40103	0.0050905
0	H	0.678405	0.580382	0.037247
0	C	0.854911	0.498513	0.954119
0	C	0.709499	0.482887	0.0879848
0	H	0.684891	0.499133	0.954765
0	H	0.87954	0.482206	0.0874395
0	C	0.959457	0.55273	0.924876
0	C	0.60477	0.428711	0.116997
0	C	0.834726	0.610442	0.894121
0	C	0.729377	0.370972	0.147712
0	C	0.840087	0.714172	0.867607
0	C	0.723619	0.267189	0.174406
0	H	0.814926	0.725492	0.902435
0	H	0.748732	0.255886	0.139569
0	H	0.689774	0.71588	0.847596
0	H	0.873986	0.26551	0.194383
0	C	0.999663	0.753733	0.818837
0	C	0.564174	0.2276	0.223202
0	C	0.991251	0.819482	0.801338
0	C	0.572881	0.161848	0.240721
0	C	0.132726	0.839257	0.824962
0	C	0.431467	0.142003	0.217158
0	H	0.235079	0.806445	0.860324
0	H	0.328921	0.174761	0.181824
0	C	0.14797	0.900694	0.802053
0	C	0.41653	0.0805531	0.240073
0	H	0.264834	0.916312	0.818448
0	H	0.299652	0.0648825	0.223741
0	C	0.0167266	0.942803	0.756815
0	C	0.548078	0.0385088	0.285246
0	C	0.0554408	0.00947667	0.726808
0	C	0.509717	0.971813	0.315294
0	C	0.209524	0.0339986	0.672547
0	C	0.356176	0.94723	0.369684
0	H	0.190193	0.0837879	0.641199
0	H	0.376014	0.89746	0.401061
0	H	0.370815	0.0216725	0.68709
0	H	0.194708	0.959387	0.355272
0	C	0.280756	0.965922	0.63662
0	C	0.284591	0.0154053	0.405475
0	C	0.173967	0.941439	0.605937
0	C	0.391129	0.0399105	0.43619
0	C	0.957612	0.945247	0.603698
0	C	0.607481	0.0361777	0.43843
0	H	0.867206	0.968796	0.62202
0	H	0.69806	0.0126925	0.420059
0	C	0.858567	0.918347	0.57877
0	C	0.70626	0.0630478	0.463432
0	H	0.688625	0.919538	0.578389
0	H	0.876216	0.0618959	0.463831
0	C	0.924086	0.724689	0.425811
0	C	0.640661	0.256882	0.616247
0	H	0.811566	0.706965	0.463241
0	H	0.752986	0.274597	0.578771
0	C	0.930101	0.704376	0.386461
0	C	0.635017	0.277198	0.655595
0	H	0.819915	0.671101	0.392539
0	H	0.745412	0.310444	0.649486
0	C	0.00814485	0.567176	0.489909
0	C	0.557485	0.414486	0.552209
0	H	0.928999	0.585646	0.447515
0	H	0.636703	0.396041	0.594584
0	C	0.896937	0.539867	0.544078
0	C	0.668526	0.441821	0.498011
0	H	0.727771	0.537738	0.544844
0	H	0.837672	0.443996	0.497209
0	C	0.902242	0.371062	0.901301
0	C	0.662756	0.610491	0.140729
0	H	0.777689	0.405578	0.884749
0	H	0.787164	0.575927	0.157268
0	C	0.917915	0.329162	0.962725
0	C	0.646989	0.652368	0.079302
0	H	0.803112	0.330263	0.99431
0	H	0.761548	0.651212	0.0476987
0	C	0.287607	0.497767	0.950005
0	C	0.276826	0.483787	0.0917949
0	H	0.457751	0.497291	0.948495
0	H	0.106675	0.484314	0.0932
0	C	0.175551	0.552693	0.923269
0	C	0.388658	0.428823	0.118439
0	H	0.255161	0.595693	0.900814
0	H	0.308906	0.385852	0.140704
0	C	0.851739	0.861131	0.758944
0	C	0.712682	0.120261	0.283068
0	H	0.737331	0.845769	0.741535
0	H	0.827006	0.135688	0.300441
0	C	0.863033	0.922689	0.737092
0	C	0.701755	0.058701	0.304907
0	H	0.75459	0.955197	0.703302
0	H	0.810451	0.0262381	0.338634
0	C	0.290888	0.912656	0.581466
0	C	0.273984	0.0686035	0.460715
0	H	0.460836	0.910362	0.582763
0	H	0.104036	0.0708452	0.459413
0	C	0.191962	0.88665	0.555439
0	C	0.372697	0.0945798	0.486814
0	H	0.282031	0.864363	0.53559
0	H	0.282378	0.116781	0.506714
0	C	0.431547	0.765276	0.490413
0	C	0.132686	0.216121	0.551796
0	H	0.547955	0.794241	0.492264
0	H	0.0163958	0.187054	0.550072
0	H	0.483192	0.752081	0.458338
0	H	0.0809621	0.229465	0.583753
0	C	0.381875	0.71004	0.553347
0	C	0.182324	0.271225	0.48877
0	C	0.178372	0.684951	0.549219
0	C	0.385607	0.29646	0.492827
0	H	0.194889	0.664278	0.5221
0	H	0.368809	0.317229	0.51986
0	H	0.108827	0.652913	0.593644
0	H	0.455079	0.328457	0.448374
0	C	0.355284	0.728801	0.59925
0	C	0.209334	0.252203	0.443073
0	H	0.48961	0.752972	0.598604
0	H	0.0749363	0.228057	0.443717
0	H	0.335383	0.689841	0.645207
0	H	0.229788	0.291024	0.397079
0	H	0.219215	0.759276	0.589211
0	H	0.3452	0.221611	0.453351
0	C	0.558386	0.662974	0.569669
0	C	0.00563089	0.318274	0.472228
0	H	0.707046	0.681734	0.568897
0	H	0.857004	0.299372	0.473233
0	H	0.574358	0.646742	0.539056
0	H	0.989684	0.334815	0.502589
0	H	0.537941	0.622953	0.61517
0	H	0.0258762	0.358103	0.426593
0	C	0.750834	0.713409	0.270686
0	C	0.814908	0.268017	0.771408
0	H	0.702701	0.735655	0.29531
0	H	0.862825	0.245827	0.74672
0	H	0.626565	0.682848	0.276292
0	H	0.939348	0.2985	0.765856
0	C	0.813931	0.759117	0.204746
0	C	0.751838	0.222246	0.83733
0	C	0.0180241	0.786425	0.205652
0	C	0.5475	0.195052	0.836406
0	H	0.0966162	0.81062	0.161262
0	H	0.468902	0.170821	0.880797
0	H	0.994272	0.816206	0.223339
0	H	0.570877	0.165334	0.818639
0	C	0.847501	0.727631	0.169871
0	C	0.718694	0.253616	0.872327
0	H	0.70634	0.707444	0.168491
0	H	0.859996	0.273747	0.873703
0	H	0.966755	0.691233	0.191105
0	H	0.599528	0.290041	0.851169
0	H	0.898595	0.758617	0.123477
0	H	0.667676	0.222582	0.918718
0	C	0.644432	0.808837	0.176808
0	C	0.921073	0.172429	0.865186
0	H	0.493658	0.789143	0.181712
0	H	0.0719472	0.192026	0.860396
0	H	0.674443	0.840433	0.128998
0	H	0.890874	0.140708	0.912959
0	H	0.627583	0.834836	0.19875
0	H	0.937786	0.146572	0.843099
0	C	0.130026	0.501382	0.809446
0	C	0.435267	0.480249	0.23264
0	H	0.138375	0.471746	0.85858
0	H	0.427099	0.509862	0.183499
0	H	0.0527672	0.544956	0.797449
0	H	0.512437	0.436655	0.244671
0	C	0.342286	0.509075	0.777071
0	C	0.222873	0.472611	0.264937
0	C	0.404527	0.448582	0.782521
0	C	0.160684	0.5331	0.2595
0	H	0.529927	0.454027	0.74909
0	H	0.0352274	0.527662	0.292913
0	H	0.450194	0.413702	0.828405
0	H	0.115093	0.567993	0.213615
0	C	0.505587	0.52175	0.808327
0	C	0.059726	0.460002	0.233595
0	H	0.661438	0.521417	0.78949
0	H	0.90373	0.460461	0.252295
0	H	0.509284	0.488236	0.856508
0	H	0.0565053	0.493471	0.185396
0	H	0.480693	0.566245	0.802775
0	H	0.0844116	0.415476	0.239216
0	C	0.326671	0.559773	0.711164
0	C	0.238163	0.421882	0.330839
0	H	0.470135	0.562652	0.68538
0	H	0.0943175	0.418893	0.356518
0	H	0.297015	0.604023	0.705826
0	H	0.268517	0.377685	0.336125
0	H	0.20092	0.551672	0.690435
0	H	0.363356	0.430043	0.351693
0	C	0.118156	0.151314	0.058035
0	C	0.446894	0.830264	0.983982
0	H	0.224867	0.111571	0.0757744
0	H	0.340059	0.869972	0.966329
0	H	0.100205	0.171569	0.00954897
0	H	0.465357	0.810003	0.0324501
0	C	0.907797	0.136345	0.0926304
0	C	0.656905	0.845298	0.949209
0	C	0.797501	0.196148	0.0788011
0	C	0.767332	0.785504	0.963043
0	H	0.738462	0.222645	0.032967
0	H	0.826732	0.759063	0.00884169
0	H	0.670914	0.189218	0.111499
0	H	0.893629	0.792445	0.930257
0	C	0.775599	0.105676	0.0705486
0	C	0.789316	0.876116	0.97109
0	H	0.621836	0.0969468	0.0923372
0	H	0.942426	0.885229	0.948893
0	H	0.845226	0.0623677	0.0805087
0	H	0.718896	0.919238	0.961448
0	H	0.753607	0.133671	0.0221016
0	H	0.812877	0.84803	0.019458
0	C	0.94149	0.0951883	0.159936
0	C	0.622508	0.886354	0.881932
0	H	0.798557	0.0899141	0.186284
0	H	0.765082	0.89162	0.855453
0	H	0.0526632	0.1147	0.174451
0	H	0.511006	0.866761	0.8676
0	H	0.000127573	0.0499314	0.172195
0	H	0.563851	0.931614	0.869648
0	C	0.367949	0.743459	0.801808
0	C	0.195796	0.237839	0.240173
0	H	0.490249	0.709624	0.830719
0	H	0.0735095	0.27165	0.211226
0	H	0.407224	0.789274	0.789116
0	H	0.156596	0.192008	0.252901
0	C	0.329843	0.740302	0.746314
0	C	0.233794	0.241095	0.295618
0	C	0.119536	0.772675	0.721233
0	C	0.444001	0.208699	0.320762
0	H	0.123277	0.82199	0.700092
0	H	0.440203	0.159386	0.341885
0	H	0.0586982	0.762075	0.689731
0	H	0.504721	0.21929	0.352285
0	C	0.503781	0.773462	0.70024
0	C	0.0597422	0.208022	0.341679
0	H	0.656073	0.754166	0.719718
0	H	0.907466	0.227258	0.322157
0	H	0.502277	0.82154	0.68428
0	H	0.0613395	0.159909	0.357782
0	H	0.496506	0.770032	0.660657
0	H	0.0668809	0.211601	0.381176
0	C	0.324876	0.674571	0.763693
0	C	0.238847	0.306865	0.278103
0	H	0.462422	0.648419	0.788655
0	H	0.10107	0.33294	0.253239
0	H	0.318891	0.671008	0.72419
0	H	0.245396	0.310523	0.317531
0	H	0.189115	0.652937	0.792648
0	H	0.374281	0.3285	0.248979
0	C	0.016257	0.0156867	0.815766
0	C	0.547654	0.965647	0.226289
0	H	0.115988	0.0297187	0.838346
0	H	0.447583	0.951541	0.203849
0	H	0.981101	0.967577	0.845784
0	H	0.582344	0.0137763	0.196218
0	C	0.81838	0.0563698	0.791745
0	C	0.745901	0.925096	0.250069
0	C	0.722094	0.042505	0.748274
0	C	0.84277	0.938984	0.293455
0	H	0.657092	0.997225	0.771401
0	H	0.907492	0.98431	0.270266
0	H	0.603426	0.0768285	0.719943
0	H	0.961836	0.904715	0.321622
0	C	0.664846	0.040888	0.843878
0	C	0.898705	0.940716	0.19775
0	H	0.525758	0.0703659	0.827913
0	H	0.0378878	0.911238	0.213536
0	H	0.730972	0.0464057	0.877816
0	H	0.832011	0.935258	0.163858
0	H	0.614481	0.994019	0.86607
0	H	0.949023	0.987584	0.175583
0	C	0.874352	0.122746	0.75887
0	C	0.690421	0.85868	0.282963
0	H	0.741833	0.153233	0.736191
0	H	0.823148	0.828259	0.305578
0	H	0.994297	0.132371	0.723909
0	H	0.570682	0.848982	0.317989
0	H	0.933105	0.134601	0.789461
0	H	0.631572	0.846793	0.25241
