#******************************************
#
# CIF file created by Zeo++
# Zeo++ is an open source package to
# analyze microporous materials
#
#*******************************************

_cell_length_a		17.7014(0)
_cell_length_b		18.1932(0)
_cell_length_c		10.801(0)
_cell_angle_alpha		90(0)
_cell_angle_beta		90(0)
_cell_angle_gamma		120.804(0)

_symmetry_space_group_name_H-M		'P1'
_symmetry_Int_Tables_number		1
_symmetry_cell_setting		Monoclinic

loop_
_symmetry_equiv_pos_as_xyz
'+x,+y,+z'

loop_
_atom_site_label
_atom_site_type_symbol
_atom_site_fract_x
_atom_site_fract_y
_atom_site_fract_z
0	O	0.861103	0.297361	0.163484
0	O	0.709227	0.540938	0.495125
0	O	0.453787	0.135903	0.829628
0	O	0.160981	0.687844	0.664358
0	O	0.308044	0.441029	0.997676
0	O	0.565551	0.849963	0.328175
0	H	0.922534	0.314327	0.193314
0	H	0.692557	0.583718	0.526737
0	H	0.412346	0.0751953	0.860091
0	H	0.0995166	0.671043	0.693847
0	H	0.323844	0.397495	0.0285192
0	H	0.606709	0.910605	0.359084
0	O	0.968029	0.474213	0.126998
0	O	0.52735	0.46781	0.460039
0	O	0.538427	0.0433587	0.79992
0	O	0.0552024	0.51095	0.629366
0	O	0.490384	0.514168	0.964199
0	O	0.481734	0.943269	0.296663
0	O	0.880971	0.460296	0.964873
0	O	0.538902	0.396319	0.297305
0	O	0.606534	0.123743	0.631231
0	O	0.140972	0.524668	0.465639
0	O	0.479518	0.58553	0.800766
0	O	0.413291	0.861698	0.129038
0	N	0.989446	0.640737	0.77053
0	N	0.353145	0.322775	0.106157
0	N	0.684619	0.0201783	0.439082
0	N	0.0320901	0.344696	0.270937
0	N	0.663496	0.657489	0.606802
0	N	0.334409	0.965183	0.938179
0	C	0.915299	0.552684	0.959211
0	C	0.44344	0.337076	0.29322
0	C	0.668898	0.0933001	0.625782
0	C	0.106518	0.432242	0.459906
0	C	0.57505	0.64401	0.795638
0	C	0.350448	0.891539	0.123854
0	H	0.927331	0.577294	0.0558188
0	H	0.419051	0.323976	0.39029
0	H	0.68366	0.0837236	0.72258
0	H	0.0945614	0.407615	0.556539
0	H	0.60019	0.656797	0.892433
0	H	0.335272	0.900405	0.220675
0	F	0.0514194	0.248975	0.70554
0	F	0.767726	0.7783	0.036912
0	F	0.217707	0.94275	0.369085
0	F	0.971046	0.735317	0.204902
0	F	0.253401	0.207336	0.535865
0	F	0.805374	0.0444971	0.872126
0	C	0.911234	0.428479	0.0543402
0	C	0.573373	0.458384	0.38672
0	C	0.544851	0.094846	0.723534
0	C	0.111322	0.556571	0.555819
0	C	0.444657	0.523786	0.89059
0	C	0.475223	0.891342	0.220997
0	C	0.914302	0.307836	0.951973
0	C	0.69954	0.583219	0.283982
0	C	0.414647	0.0836406	0.617746
0	C	0.107569	0.676639	0.452704
0	C	0.318872	0.4002	0.785948
0	C	0.605922	0.902511	0.116713
0	C	0.862784	0.32895	0.0433284
0	C	0.675709	0.510921	0.375293
0	C	0.487261	0.136669	0.710355
0	C	0.159352	0.65602	0.544356
0	C	0.342323	0.471814	0.878408
0	C	0.532736	0.849455	0.208471
0	C	0.765308	0.291423	0.00531683
0	C	0.711406	0.452222	0.336541
0	C	0.543985	0.232087	0.672366
0	C	0.25688	0.693977	0.5063
0	C	0.307375	0.531266	0.840383
0	C	0.47606	0.75415	0.169911
0	H	0.764921	0.325039	0.918903
0	H	0.675129	0.417166	0.251223
0	H	0.582397	0.23493	0.58845
0	H	0.25751	0.659594	0.420887
0	H	0.343366	0.566038	0.754748
0	H	0.438537	0.751666	0.0851542
0	C	0.917617	0.575199	0.688865
0	C	0.419099	0.318287	0.0235051
0	C	0.687253	0.0876105	0.355482
0	C	0.10401	0.410384	0.189541
0	C	0.597272	0.662599	0.525589
0	C	0.3323	0.898366	0.85375
0	H	0.939679	0.531991	0.652259
0	H	0.465339	0.384081	0.98853
0	H	0.619385	0.0636141	0.320434
0	H	0.0821821	0.453932	0.153547
0	H	0.550542	0.596964	0.490505
0	H	0.400279	0.922896	0.818756
0	H	0.909971	0.608223	0.607718
0	H	0.384214	0.278568	0.941556
0	H	0.728317	0.0949362	0.273525
0	H	0.111429	0.377566	0.107931
0	H	0.631749	0.702357	0.443482
0	H	0.291222	0.891216	0.771907
0	C	0.623959	0.157525	0.0301999
0	C	0.846522	0.447027	0.355973
0	C	0.542618	0.365822	0.682706
0	C	0.397691	0.828724	0.527003
0	C	0.173263	0.53818	0.861031
0	C	0.477583	0.620524	0.184037
0	H	0.580274	0.157907	0.956634
0	H	0.841513	0.402035	0.282139
0	H	0.587121	0.406029	0.606869
0	H	0.440584	0.827083	0.453192
0	H	0.177669	0.582557	0.786751
0	H	0.433092	0.579403	0.108855
0	H	0.594913	0.0904436	0.0596955
0	H	0.916551	0.485325	0.381653
0	H	0.501133	0.39281	0.705944
0	H	0.426895	0.896307	0.553986
0	H	0.103597	0.500417	0.888242
0	H	0.519168	0.593936	0.208789
0	C	0.963409	0.702992	0.815211
0	C	0.287118	0.234135	0.150151
0	C	0.77637	0.049019	0.482853
0	C	0.057902	0.282111	0.314821
0	C	0.730432	0.745956	0.650337
0	C	0.242545	0.935646	0.982116
0	H	0.95937	0.737755	0.73358
0	H	0.250079	0.195655	0.0684456
0	H	0.816094	0.0528131	0.401142
0	H	0.0620557	0.247746	0.232681
0	H	0.767146	0.784197	0.568284
0	H	0.202731	0.932087	0.900658
0	H	0.0166312	0.75118	0.875065
0	H	0.23903	0.238144	0.211234
0	H	0.77364	0.999098	0.544599
0	H	0.00454918	0.233643	0.374157
0	H	0.778593	0.741463	0.710589
0	H	0.24496	0.985115	0.0446702
0	C	0.631886	0.216766	0.137096
0	C	0.787266	0.396794	0.465789
0	C	0.597141	0.365804	0.79342
0	C	0.391138	0.771408	0.635899
0	C	0.233677	0.589071	0.969578
0	C	0.423044	0.621715	0.293873
0	H	0.571607	0.21954	0.147946
0	H	0.782582	0.334546	0.47763
0	H	0.660986	0.426019	0.798653
0	H	0.451807	0.769313	0.646722
0	H	0.23975	0.652041	0.979712
0	H	0.359658	0.561191	0.301008
0	H	0.642145	0.192816	0.225686
0	H	0.814527	0.432408	0.552969
0	H	0.562699	0.360276	0.881207
0	H	0.381437	0.796629	0.723705
0	H	0.206412	0.554803	0.0576537
0	H	0.458027	0.629354	0.38185
0	C	0.936662	0.34739	0.835306
0	C	0.658877	0.565743	0.167413
0	C	0.434449	0.0598854	0.504137
0	C	0.0856856	0.63717	0.335987
0	C	0.359567	0.418917	0.669285
0	C	0.587455	0.928033	0.003633
0	H	0.917479	0.393961	0.809951
0	H	0.608872	0.500032	0.14212
0	H	0.502555	0.0791315	0.481361
0	H	0.105092	0.590711	0.310913
0	H	0.408893	0.48504	0.644896
0	H	0.519785	0.909967	0.980146
0	C	0.87467	0.65711	0.885416
0	C	0.332182	0.191951	0.218389
0	C	0.818338	0.136397	0.550079
0	C	0.146536	0.327556	0.385326
0	C	0.686522	0.78887	0.719622
0	C	0.200956	0.847929	0.0483276
0	H	0.881323	0.684463	0.978755
0	H	0.303997	0.17016	0.311559
0	H	0.841303	0.132362	0.643495
0	H	0.139642	0.299947	0.478524
0	H	0.715647	0.810874	0.812275
0	H	0.177884	0.851344	0.141941
0	H	0.825134	0.666428	0.837245
0	H	0.320605	0.133996	0.168644
0	H	0.877388	0.185013	0.500012
0	H	0.195963	0.31812	0.337063
0	H	0.698041	0.846805	0.669857
0	H	0.142064	0.799381	0.997928
0	C	0.71806	0.194155	0.981246
0	C	0.811108	0.503533	0.309642
0	C	0.4873	0.271891	0.64203
0	C	0.303035	0.790898	0.47982
0	C	0.207531	0.480733	0.814663
0	C	0.532686	0.71401	0.141225
0	H	0.719037	0.179745	0.882525
0	H	0.824797	0.519239	0.210739
0	H	0.469779	0.265447	0.543273
0	H	0.300831	0.804034	0.38086
0	H	0.193109	0.464646	0.715972
0	H	0.54992	0.719369	0.0424412
0	H	0.751133	0.165486	0.0317224
0	H	0.842932	0.564998	0.360526
0	H	0.424775	0.239141	0.694504
0	H	0.270026	0.819682	0.530135
0	H	0.175492	0.419476	0.86611
0	H	0.595265	0.747241	0.193264
0	C	0.712149	0.305059	0.107064
0	C	0.697083	0.38677	0.43895
0	C	0.608292	0.287886	0.775976
0	C	0.310989	0.682371	0.60888
0	C	0.322964	0.597048	0.942858
0	C	0.410697	0.698583	0.272665
0	H	0.75269	0.333963	0.191562
0	H	0.669482	0.398238	0.52425
0	H	0.594045	0.2514	0.863832
0	H	0.271163	0.654635	0.694095
0	H	0.349759	0.584654	0.0282359
0	H	0.423278	0.735681	0.359685
0	H	0.691967	0.349867	0.0742835
0	H	0.64922	0.321378	0.407695
0	H	0.676394	0.307747	0.750221
0	H	0.331421	0.637447	0.577732
0	H	0.371957	0.662153	0.911958
0	H	0.342773	0.677603	0.244399
0	C	0.842204	0.560627	0.892898
0	C	0.431995	0.25687	0.225745
0	C	0.750018	0.165034	0.556925
0	C	0.17939	0.424104	0.393304
0	C	0.586692	0.724484	0.72877
0	C	0.269696	0.819801	0.0544044
0	H	0.779661	0.525596	0.945607
0	H	0.466467	0.22984	0.277443
0	H	0.776703	0.226507	0.607703
0	H	0.24196	0.458807	0.446035
0	H	0.553061	0.751972	0.781487
0	H	0.243336	0.758114	0.104509
0	C	0.93863	0.248084	0.9841
0	C	0.763524	0.667315	0.315867
0	C	0.327605	0.0595844	0.645891
0	C	0.0826648	0.736007	0.484613
0	C	0.255727	0.315623	0.816822
0	C	0.692378	0.924836	0.145543
0	H	0.920615	0.217326	0.075114
0	H	0.795156	0.680231	0.406756
0	H	0.312877	0.0786576	0.734514
0	H	0.100132	0.76659	0.575813
0	H	0.224029	0.3017	0.907731
0	H	0.705983	0.904247	0.23372
0	C	0.00697774	0.268506	0.785954
0	C	0.745192	0.714633	0.117567
0	C	0.282023	0.988569	0.450121
0	C	0.0151847	0.715757	0.285851
0	C	0.275055	0.270296	0.617478
0	C	0.740191	0.998139	0.951705
0	C	0.999645	0.5955	0.879923
0	C	0.400946	0.377737	0.216033
0	C	0.62809	0.0100405	0.549064
0	C	0.0220303	0.389586	0.380896
0	C	0.616289	0.602714	0.717084
0	C	0.39101	0.975121	0.0479866
0	H	0.0575321	0.642065	0.93471
0	H	0.354264	0.387348	0.272075
0	H	0.619394	0.955361	0.605579
0	H	0.964288	0.342799	0.435726
0	H	0.663126	0.592643	0.77201
0	H	0.399494	0.0294856	0.105078
0	H	0.0150948	0.54686	0.844982
0	H	0.451911	0.442356	0.181711
0	H	0.561275	0.992247	0.515106
0	H	0.00639765	0.438225	0.346641
0	H	0.564701	0.538237	0.683289
0	H	0.457894	0.993275	0.0138353
0	C	0.830152	0.524269	0.760515
0	C	0.469118	0.282044	0.0932138
0	C	0.723033	0.173613	0.424233
0	C	0.191576	0.460755	0.261099
0	C	0.548172	0.699172	0.59693
0	C	0.296974	0.812085	0.921514
0	H	0.776878	0.527164	0.711209
0	H	0.463522	0.22644	0.0429111
0	H	0.779464	0.225449	0.373082
0	H	0.244543	0.457504	0.211438
0	H	0.553381	0.754737	0.547146
0	H	0.24081	0.760264	0.869925
0	H	0.809639	0.455738	0.765376
0	H	0.540217	0.330361	0.0976885
0	H	0.672362	0.191957	0.428363
0	H	0.212536	0.529387	0.266249
0	H	0.477109	0.650996	0.602836
0	H	0.347981	0.794177	0.925212
0	C	0.985586	0.227645	0.900997
0	C	0.787221	0.734416	0.232558
0	C	0.259926	0.011722	0.561757
0	C	0.0358666	0.756361	0.401064
0	C	0.232991	0.249264	0.732463
0	C	0.760882	0.972939	0.0626861
0	H	0.00443228	0.181211	0.92539
0	H	0.83703	0.799681	0.256741
0	H	0.192425	0.993388	0.582856
0	H	0.0166443	0.802548	0.425279
0	H	0.183881	0.183598	0.755869
0	H	0.827933	0.989959	0.0842841
0	C	0.984106	0.328531	0.750973
0	C	0.680929	0.631757	0.0829182
0	C	0.36787	0.0111001	0.419188
0	C	0.038398	0.655923	0.251211
0	C	0.338462	0.353715	0.583718
0	C	0.654941	0.977186	0.92005
0	H	0.00413938	0.362041	0.661945
0	H	0.646636	0.618058	0.993838
0	H	0.383516	0.990156	0.332767
0	H	0.0188514	0.622556	0.162042
0	H	0.372771	0.368464	0.494594
0	H	0.640472	0.999683	0.834081
