#******************************************
#
# CIF file created by Zeo++
# Zeo++ is an open source package to
# analyze microporous materials
#
#*******************************************

_cell_length_a		13.6189(0)
_cell_length_b		7.77192(0)
_cell_length_c		17.0805(0)
_cell_angle_alpha		90(0)
_cell_angle_beta		121.017(0)
_cell_angle_gamma		90(0)

_symmetry_space_group_name_H-M		'P1'
_symmetry_Int_Tables_number		1
_symmetry_cell_setting		Monoclinic

loop_
_symmetry_equiv_pos_as_xyz
'+x,+y,+z'

loop_
_atom_site_label
_atom_site_type_symbol
_atom_site_fract_x
_atom_site_fract_y
_atom_site_fract_z
0	C	0.166993	0.819731	0.324107
0	C	0.83678	0.330589	0.291336
0	C	0.81849	0.244991	0.781998
0	C	0.149142	0.732042	0.814697
0	O	0.1871	0.784296	0.250116
0	O	0.807466	0.292569	0.360022
0	O	0.798216	0.280612	0.85589
0	O	0.177973	0.77096	0.745833
0	C	0.0999959	0.825238	0.162948
0	C	0.892783	0.318377	0.449711
0	C	0.884825	0.23835	0.943048
0	C	0.0924154	0.74589	0.656165
0	O	0.0101283	0.88463	0.149301
0	O	0.987724	0.36471	0.468687
0	O	0.974402	0.177611	0.956778
0	O	0.997434	0.699941	0.637242
0	C	0.134326	0.788143	0.0955225
0	C	0.85042	0.28267	0.512173
0	C	0.850304	0.275676	0.0103329
0	C	0.134654	0.781884	0.59364
0	C	0.158906	0.603437	0.076426
0	C	0.818953	0.0989979	0.526713
0	C	0.8258	0.460447	0.0295051
0	C	0.166098	0.965599	0.579162
0	C	0.155341	0.456934	0.13284
0	C	0.822745	0.954449	0.469414
0	C	0.829437	0.606967	0.973109
0	C	0.162165	0.110018	0.636467
0	C	0.11501	0.55586	0.978375
0	C	0.855579	0.0466118	0.622868
0	C	0.869595	0.507881	0.127562
0	C	0.129454	0.0180866	0.483001
0	C	0.256752	0.732776	0.126174
0	C	0.72529	0.234195	0.475971
0	C	0.727871	0.331309	0.979563
0	C	0.259787	0.830426	0.629875
0	C	0.319458	0.818587	0.0864317
0	C	0.661501	0.323319	0.513976
0	C	0.664885	0.245492	0.0190764
0	C	0.323626	0.741492	0.591871
0	C	0.397298	0.696859	0.0757329
0	C	0.587884	0.201986	0.529995
0	C	0.586989	0.367202	0.0297518
0	C	0.397192	0.862861	0.575847
0	O	0.498188	0.667946	0.132075
0	O	0.482628	0.178538	0.455861
0	O	0.486075	0.396048	0.973443
0	O	0.502387	0.886678	0.64998
0	O	0.345364	0.616742	0.99406
0	O	0.6151	0.126789	0.601422
0	O	0.638902	0.447479	0.111419
0	O	0.370056	0.93775	0.504339
0	C	0.275261	0.976601	0.0262507
0	C	0.705923	0.483565	0.572644
0	C	0.708861	0.0874325	0.0792053
0	C	0.279172	0.5814	0.533079
0	C	0.357501	0.00517005	0.110995
0	C	0.624888	0.509349	0.487216
0	C	0.626857	0.0588765	0.994393
0	C	0.36022	0.555399	0.618498
0	C	0.43559	0.114654	0.190078
0	C	0.549161	0.617623	0.40687
0	C	0.549026	0.949556	0.915175
0	C	0.435897	0.446762	0.698735
0	C	0.431487	0.299032	0.155847
0	C	0.548081	0.800312	0.44083
0	C	0.552834	0.765032	0.949208
0	C	0.436638	0.264088	0.66461
0	C	0.392194	0.112186	0.257307
0	C	0.599199	0.619439	0.344052
0	C	0.592861	0.952254	0.84824
0	C	0.385863	0.444996	0.761569
0	C	0.557847	0.0420706	0.23524
0	C	0.427867	0.541249	0.357064
0	C	0.426753	0.0220728	0.869668
0	C	0.557359	0.522647	0.748529
0	H	0.109854	0.721307	0.324187
0	H	0.904261	0.243296	0.299306
0	H	0.875711	0.343424	0.781994
0	H	0.079606	0.815811	0.805743
0	H	0.130594	0.948686	0.316253
0	H	0.863971	0.464987	0.297728
0	H	0.854816	0.115996	0.789888
0	H	0.12504	0.596345	0.809601
0	H	0.253719	0.812354	0.385016
0	H	0.755094	0.308717	0.227137
0	H	0.731884	0.252444	0.721001
0	H	0.230197	0.758114	0.878739
0	H	0.0905365	0.877551	0.0367396
0	H	0.892752	0.369016	0.57229
0	H	0.893858	0.186171	0.0690975
0	H	0.0922816	0.695641	0.533506
0	H	0.181615	0.495094	0.202968
0	H	0.805387	0.996935	0.402111
0	H	0.803528	0.568783	0.903135
0	H	0.179804	0.0674068	0.703813
0	H	0.212618	0.351917	0.137516
0	H	0.75881	0.854746	0.457809
0	H	0.77184	0.711683	0.968209
0	H	0.22585	0.210097	0.647943
0	H	0.0689184	0.401161	0.101852
0	H	0.906648	0.889618	0.503952
0	H	0.915737	0.663116	0.0043022
0	H	0.0781076	0.174339	0.602008
0	H	0.0500238	0.453264	0.954621
0	H	0.911038	0.9317	0.644412
0	H	0.933652	0.611869	0.151154
0	H	0.0733978	0.13236	0.461243
0	H	0.185172	0.506689	0.970172
0	H	0.781199	0.0126903	0.628834
0	H	0.799169	0.555153	0.135938
0	H	0.203828	0.0530958	0.477235
0	H	0.0764117	0.665183	0.931886
0	H	0.903186	0.148088	0.67276
0	H	0.909507	0.398996	0.174118
0	H	0.082593	0.91635	0.433212
0	H	0.315075	0.710827	0.200992
0	H	0.66974	0.216567	0.400765
0	H	0.669704	0.353478	0.904729
0	H	0.315291	0.847988	0.705093
0	H	0.586402	0.532475	0.12081
0	H	0.433048	0.0920404	0.466854
0	H	0.397713	0.531657	0.984586
0	H	0.551987	0.973109	0.638952
0	H	0.213743	0.0156071	0.959862
0	H	0.766661	0.524827	0.638743
0	H	0.770125	0.0483917	0.145657
0	H	0.218363	0.540347	0.466965
0	H	0.493386	0.382932	0.211684
0	H	0.493829	0.88677	0.382971
0	H	0.491494	0.681023	0.893117
0	H	0.490911	0.177379	0.722338
0	H	0.346091	0.356351	0.128476
0	H	0.634449	0.856306	0.477967
0	H	0.638418	0.707916	0.977208
0	H	0.350124	0.2084	0.627531
0	H	0.452028	0.302364	0.101759
0	H	0.513896	0.802069	0.486477
0	H	0.531398	0.761414	0.0027949
0	H	0.470712	0.262288	0.618853
0	H	0.430752	0.217536	0.307939
0	H	0.553924	0.712256	0.287365
0	H	0.554869	0.846606	0.797734
0	H	0.430454	0.351015	0.81778
0	H	0.414407	0.991157	0.296651
0	H	0.592438	0.493043	0.31259
0	H	0.570464	0.0731124	0.808727
0	H	0.393661	0.570977	0.793752
0	H	0.298989	0.126396	0.222724
0	H	0.690062	0.655939	0.381363
0	H	0.686151	0.938361	0.883076
0	H	0.294709	0.410135	0.724209
0	H	0.616808	0.113887	0.297884
0	H	0.369662	0.616573	0.295375
0	H	0.367981	0.9501	0.806995
0	H	0.615502	0.446685	0.809959
0	H	0.592248	0.0492087	0.18982
0	H	0.390215	0.539892	0.400303
0	H	0.392084	0.0151182	0.914908
0	H	0.594845	0.524376	0.705159
0	H	0.560806	0.905177	0.254022
0	H	0.427636	0.406859	0.335657
0	H	0.423929	0.158951	0.850888
0	H	0.557899	0.656844	0.770308
