#******************************************
#
# CIF file created by Zeo++
# Zeo++ is an open source package to
# analyze microporous materials
#
#*******************************************

_cell_length_a		9.76239(0)
_cell_length_b		13.228(0)
_cell_length_c		25.4213(0)
_cell_angle_alpha		90(0)
_cell_angle_beta		90(0)
_cell_angle_gamma		90(0)

_symmetry_space_group_name_H-M		'P1'
_symmetry_Int_Tables_number		1
_symmetry_cell_setting		Monoclinic

loop_
_symmetry_equiv_pos_as_xyz
'+x,+y,+z'

loop_
_atom_site_label
_atom_site_type_symbol
_atom_site_fract_x
_atom_site_fract_y
_atom_site_fract_z
0	S	0.100475	0.654228	0.782746
0	S	0.388596	0.359288	0.296672
0	S	0.886814	0.157319	0.666602
0	S	0.59785	0.863598	0.181419
0	S	0.383113	0.0649489	0.672285
0	S	0.107217	0.948514	0.188
0	S	0.605806	0.566613	0.775818
0	S	0.881141	0.452827	0.291188
0	O	0.208047	0.824921	0.74793
0	O	0.277052	0.190193	0.261544
0	O	0.776543	0.327175	0.701677
0	O	0.706047	0.693062	0.216108
0	O	0.198844	0.753016	0.865851
0	O	0.289507	0.262384	0.378831
0	O	0.785936	0.253839	0.584293
0	O	0.696156	0.766337	0.098081
0	O	0.334883	0.931913	0.868559
0	O	0.152914	0.086817	0.383479
0	O	0.649822	0.42969	0.57997
0	O	0.83011	0.586531	0.0950371
0	O	0.322952	0.174415	0.801844
0	O	0.169723	0.841605	0.319759
0	O	0.665553	0.675147	0.643524
0	O	0.818633	0.343611	0.161217
0	O	0.325438	0.657079	0.921071
0	O	0.182941	0.379818	0.428858
0	O	0.678242	0.133977	0.536229
0	O	0.823706	0.862259	0.0431235
0	O	0.52246	0.104416	0.667459
0	O	0.966956	0.911307	0.181994
0	O	0.466397	0.605342	0.781988
0	O	0.0211158	0.41473	0.296391
0	O	0.273122	0.139546	0.670058
0	O	0.215193	0.872426	0.186333
0	O	0.715529	0.641333	0.777874
0	O	0.77245	0.377242	0.293549
0	N	0.374922	0.00514993	0.731689
0	N	0.113729	0.00709261	0.247694
0	N	0.611627	0.50959	0.715741
0	N	0.872509	0.511858	0.231592
0	C	0.251786	0.733311	0.774135
0	C	0.235139	0.282567	0.287453
0	C	0.733997	0.234633	0.676108
0	C	0.749399	0.78472	0.189858
0	H	0.328331	0.697671	0.747214
0	H	0.159733	0.319199	0.260543
0	H	0.659078	0.198469	0.703411
0	H	0.826089	0.820477	0.216667
0	C	0.311011	0.760562	0.828693
0	C	0.176215	0.256381	0.342184
0	C	0.673882	0.260384	0.621498
0	C	0.808213	0.757653	0.135217
0	H	0.398062	0.711533	0.841032
0	H	0.0903934	0.306195	0.35472
0	H	0.587605	0.210525	0.609414
0	H	0.895709	0.806414	0.123008
0	C	0.344675	0.874681	0.820771
0	C	0.142616	0.142034	0.335077
0	C	0.640286	0.374701	0.628454
0	C	0.841245	0.643351	0.142896
0	C	0.220076	0.906056	0.786129
0	C	0.267317	0.11027	0.300598
0	C	0.765399	0.406903	0.662596
0	C	0.717157	0.612054	0.177786
0	H	0.123401	0.905268	0.809587
0	H	0.364335	0.112934	0.323877
0	H	0.862068	0.404597	0.639072
0	H	0.620173	0.613176	0.154524
0	C	0.248621	0.0109393	0.763065
0	C	0.240429	0.00413503	0.278864
0	C	0.738	0.512919	0.684388
0	C	0.745582	0.506921	0.200584
0	H	0.161823	0.0371454	0.737374
0	H	0.327426	0.977526	0.25339
0	H	0.825198	0.539797	0.709696
0	H	0.659077	0.480795	0.226435
0	C	0.254044	0.0806877	0.81315
0	C	0.236834	0.936546	0.329766
0	C	0.733201	0.580416	0.63346
0	C	0.749606	0.437482	0.150377
0	H	0.146691	0.0960565	0.825707
0	H	0.344603	0.922869	0.342359
0	H	0.840682	0.594596	0.620684
0	H	0.6419	0.422289	0.138167
0	C	0.339837	0.0402785	0.859959
0	C	0.150524	0.978032	0.376156
0	C	0.646803	0.538521	0.587185
0	C	0.834426	0.478065	0.103361
0	H	0.448628	0.0624257	0.855088
0	H	0.042178	0.954384	0.371672
0	H	0.538344	0.561817	0.591728
0	H	0.943165	0.455441	0.107754
0	H	0.300603	0.0689451	0.897884
0	H	0.190756	0.95153	0.414353
0	H	0.686614	0.564988	0.54891
0	H	0.793935	0.449939	0.0655246
0	C	0.485911	0.887124	0.79477
0	C	0.00163254	0.127865	0.309151
0	C	0.499459	0.388687	0.654551
0	C	0.982908	0.630251	0.168507
0	H	0.565998	0.885378	0.825722
0	H	0.921101	0.130796	0.339918
0	H	0.418744	0.385531	0.623859
0	H	0.0624417	0.631997	0.137352
0	H	0.507243	0.820654	0.769298
0	H	0.980166	0.192987	0.282758
0	H	0.478433	0.323607	0.680987
0	H	0.00513954	0.696497	0.194057
0	C	0.502079	0.984193	0.761897
0	C	0.986444	0.0290421	0.277589
0	C	0.484199	0.487604	0.686011
0	C	0.999255	0.532906	0.201169
0	H	0.528065	0.0494468	0.787958
0	H	0.961214	0.964951	0.304537
0	H	0.458937	0.55158	0.658983
0	H	0.0247677	0.467738	0.174976
0	H	0.589768	0.97573	0.734107
0	H	0.898592	0.0356309	0.249723
0	H	0.396388	0.481234	0.713893
0	H	0.0873089	0.541147	0.228839
0	C	0.105012	0.589523	0.721756
0	C	0.384611	0.425887	0.236271
0	C	0.882664	0.0891644	0.726529
0	C	0.603188	0.92888	0.242243
0	C	0.110655	0.644464	0.674869
0	C	0.379657	0.372113	0.189013
0	C	0.87729	0.141641	0.774171
0	C	0.609022	0.874409	0.289271
0	H	0.111424	0.727123	0.675694
0	H	0.379846	0.289468	0.189291
0	H	0.876994	0.224274	0.774529
0	H	0.609483	0.791757	0.288659
0	C	0.117729	0.592424	0.627078
0	C	0.371915	0.425366	0.141615
0	C	0.87004	0.0871248	0.821201
0	C	0.616555	0.926869	0.336936
0	H	0.123335	0.634351	0.590289
0	H	0.366937	0.384331	0.104558
0	H	0.864618	0.127224	0.858537
0	H	0.62222	0.885185	0.373795
0	C	0.118812	0.486615	0.62655
0	C	0.369339	0.531156	0.141866
0	C	0.868453	0.981349	0.8202
0	C	0.617956	0.0326768	0.337204
0	H	0.12525	0.446158	0.589258
0	H	0.362347	0.572609	0.104909
0	H	0.86176	0.938845	0.856846
0	H	0.624433	0.0735862	0.374374
0	C	0.111809	0.43246	0.673755
0	C	0.375592	0.584113	0.189458
0	C	0.875241	0.929684	0.772233
0	C	0.611022	0.0863415	0.289842
0	H	0.112036	0.349685	0.673129
0	H	0.374156	0.666893	0.189404
0	H	0.874861	0.846903	0.771753
0	H	0.611564	0.169113	0.290253
0	C	0.104716	0.484018	0.721765
0	C	0.383574	0.531381	0.237092
0	C	0.882505	0.98369	0.724957
0	C	0.603365	0.034396	0.241963
0	H	0.0999099	0.441972	0.758589
0	H	0.387842	0.572418	0.274223
0	H	0.886937	0.943667	0.687537
0	H	0.598459	0.0760858	0.205041
0	C	0.219927	0.702321	0.912681
0	C	0.279154	0.323461	0.42266
0	C	0.774641	0.190617	0.541366
0	C	0.717621	0.817721	0.0514456
0	C	0.0921148	0.714523	0.948015
0	C	0.404971	0.30457	0.458275
0	C	0.899536	0.207234	0.504992
0	C	0.589411	0.806908	0.0161836
0	C	0.978969	0.647334	0.925008
0	C	0.522397	0.369987	0.437192
0	C	0.0164788	0.141542	0.526278
0	C	0.477105	0.874318	0.0395899
0	H	0.00897211	0.567551	0.923812
0	H	0.495212	0.450325	0.436345
0	H	0.987862	0.0615347	0.528187
0	H	0.508262	0.953797	0.0414246
0	H	0.952379	0.670121	0.884627
0	H	0.551952	0.347805	0.39707
0	H	0.0477289	0.165106	0.565995
0	H	0.449958	0.850561	0.0797577
0	H	0.885404	0.652728	0.948712
0	H	0.613356	0.362268	0.462306
0	H	0.106903	0.147384	0.500698
0	H	0.383673	0.870359	0.0157084
0	C	0.130344	0.680454	0.0037911
0	C	0.366397	0.336193	0.51438
0	C	0.85875	0.173797	0.449398
0	C	0.627426	0.841787	0.960518
0	H	0.0393239	0.679483	0.0293253
0	H	0.45866	0.341256	0.539245
0	H	0.950037	0.168082	0.424058
0	H	0.53617	0.84394	0.93512
0	H	0.205134	0.731358	0.0220973
0	H	0.296367	0.282152	0.53293
0	H	0.787923	0.227255	0.430796
0	H	0.701227	0.790678	0.941833
0	H	0.174628	0.604343	0.00420626
0	H	0.316783	0.410559	0.515232
0	H	0.809106	0.0994295	0.4495
0	H	0.672715	0.917588	0.960426
0	C	0.0500266	0.826082	0.948025
0	C	0.440811	0.191961	0.456095
0	C	0.937264	0.319556	0.505797
0	C	0.546254	0.695598	0.0157667
0	H	0.965319	0.839912	0.975815
0	H	0.521954	0.172718	0.484437
0	H	0.0178065	0.337009	0.476876
0	H	0.461053	0.68261	0.98807
0	H	0.0168143	0.850587	0.908776
0	H	0.476631	0.169861	0.416783
0	H	0.974846	0.34282	0.544681
0	H	0.513336	0.670557	0.0549451
0	H	0.134893	0.875649	0.959477
0	H	0.351933	0.144154	0.464808
0	H	0.848799	0.367793	0.497066
0	H	0.63039	0.645811	0.00383588
0	C	0.238543	0.248777	0.775724
0	C	0.254372	0.767385	0.293658
0	C	0.749158	0.748758	0.670572
0	C	0.735361	0.269279	0.187867
0	H	0.209749	0.222082	0.736137
0	H	0.281495	0.793358	0.253777
0	H	0.775593	0.721635	0.71031
0	H	0.706906	0.296362	0.227426
0	H	0.307719	0.313973	0.772905
0	H	0.185883	0.701666	0.291555
0	H	0.68043	0.814293	0.67302
0	H	0.805216	0.204565	0.190836
0	H	0.148548	0.266679	0.799443
0	H	0.345323	0.750639	0.317071
0	H	0.840561	0.766455	0.647621
0	H	0.645188	0.250568	0.164421
0	C	0.352294	0.96932	0.62369
0	C	0.142346	0.0444586	0.139993
0	C	0.638473	0.469279	0.823271
0	C	0.847583	0.548898	0.339304
0	C	0.386611	0.0167638	0.570487
0	C	0.110113	0.997995	0.0863644
0	C	0.605283	0.514513	0.877112
0	C	0.881434	0.502624	0.392837
0	H	0.373957	0.961744	0.538535
0	H	0.124292	0.053604	0.0547697
0	H	0.61723	0.457816	0.908332
0	H	0.867765	0.558265	0.424459
0	H	0.494221	0.0429492	0.568049
0	H	0.00287918	0.971741	0.0830502
0	H	0.498508	0.541945	0.880073
0	H	0.989004	0.476758	0.395667
0	H	0.320583	0.0814248	0.560927
0	H	0.176522	0.933562	0.0769013
0	H	0.672661	0.577929	0.887418
0	H	0.815486	0.438023	0.402538
0	C	0.4437	0.878263	0.634747
0	C	0.051707	0.136103	0.150845
0	C	0.547253	0.378475	0.811421
0	C	0.937505	0.640693	0.328056
0	H	0.41772	0.841155	0.672282
0	H	0.076466	0.172163	0.188814
0	H	0.573309	0.342834	0.773458
0	H	0.911904	0.676521	0.290119
0	H	0.553304	0.89746	0.63535
0	H	0.941896	0.117797	0.150492
0	H	0.437623	0.397388	0.811095
0	H	0.0475173	0.622784	0.328052
0	H	0.431483	0.820068	0.604226
0	H	0.0666965	0.194781	0.120807
0	H	0.560046	0.319075	0.841293
0	H	0.922987	0.699478	0.358074
0	C	0.201198	0.939767	0.627181
0	C	0.293682	0.0727085	0.14458
0	C	0.789562	0.440159	0.819057
0	C	0.69598	0.576834	0.33528
0	H	0.132385	0.00542986	0.623918
0	H	0.361646	0.00644301	0.141791
0	H	0.858287	0.505795	0.822724
0	H	0.62832	0.510471	0.338485
0	H	0.177479	0.900353	0.664346
0	H	0.316294	0.112118	0.181865
0	H	0.812688	0.401943	0.781451
0	H	0.67224	0.61577	0.29796
0	H	0.173486	0.887788	0.595264
0	H	0.323877	0.124404	0.112842
0	H	0.818107	0.387062	0.850357
0	H	0.666486	0.62879	0.366983
