#******************************************
#
# CIF file created by Zeo++
# Zeo++ is an open source package to
# analyze microporous materials
#
#*******************************************

_cell_length_a		14.5275(0)
_cell_length_b		14.5667(0)
_cell_length_c		16.1221(0)
_cell_angle_alpha		90(0)
_cell_angle_beta		90(0)
_cell_angle_gamma		120.21(0)

_symmetry_space_group_name_H-M		'P1'
_symmetry_Int_Tables_number		1
_symmetry_cell_setting		Monoclinic

loop_
_symmetry_equiv_pos_as_xyz
'+x,+y,+z'

loop_
_atom_site_label
_atom_site_type_symbol
_atom_site_fract_x
_atom_site_fract_y
_atom_site_fract_z
0	O	0.327925	0.415286	0.0993044
0	O	0.592086	0.913462	0.43289
0	O	0.0929753	0.678196	0.767613
0	O	0.68085	0.587946	0.60027
0	O	0.416094	0.0902504	0.933255
0	O	0.915837	0.325925	0.265703
0	O	0.0834488	0.412505	0.110776
0	O	0.594366	0.672215	0.444299
0	O	0.335662	0.922398	0.779092
0	O	0.925259	0.590858	0.611659
0	O	0.413643	0.331538	0.944436
0	O	0.673337	0.0816719	0.277031
0	O	0.144325	0.289802	0.105267
0	O	0.717665	0.856336	0.438849
0	O	0.15124	0.861162	0.773622
0	O	0.864416	0.713572	0.606151
0	O	0.290424	0.147333	0.939148
0	O	0.85778	0.142997	0.271523
0	O	0.0647122	0.455517	0.829309
0	O	0.551021	0.610156	0.162824
0	O	0.397867	0.941477	0.497608
0	O	0.94408	0.548948	0.329554
0	O	0.458179	0.394603	0.663816
0	O	0.611347	0.0627922	0.995393
0	O	0.0334727	0.207985	0.958216
0	O	0.799888	0.82755	0.29188
0	O	0.180007	0.971485	0.626714
0	O	0.974981	0.795617	0.459205
0	O	0.208463	0.176449	0.791905
0	O	0.829066	0.0326039	0.124715
0	H	0.0464219	0.162226	0.995672
0	H	0.845642	0.886556	0.32933
0	H	0.120982	0.957914	0.664261
0	H	0.961324	0.840831	0.496711
0	H	0.1622	0.117496	0.829213
0	H	0.888249	0.0468451	0.162318
0	O	0.304959	0.583404	0.400372
0	O	0.423946	0.721284	0.734397
0	O	0.284396	0.700818	0.0684012
0	O	0.705044	0.42146	0.902082
0	O	0.586519	0.28308	0.233298
0	O	0.724284	0.301672	0.567176
0	H	0.359414	0.559184	0.415388
0	H	0.448325	0.799979	0.749472
0	H	0.205383	0.645657	0.0829084
0	H	0.650619	0.445709	0.917097
0	H	0.562021	0.204388	0.24848
0	H	0.803306	0.356352	0.582074
0	O	0.390858	0.46303	0.380344
0	O	0.544425	0.927854	0.71427
0	O	0.0773069	0.613368	0.0476116
0	O	0.618835	0.541475	0.881807
0	O	0.465198	0.0764238	0.213985
0	O	0.931358	0.388782	0.546585
0	O	0.175432	0.21072	0.253071
0	O	0.797318	0.967662	0.586564
0	O	0.0396992	0.828909	0.921534
0	O	0.833589	0.793084	0.75369
0	O	0.211353	0.0362607	0.0872374
0	O	0.96941	0.175077	0.419356
0	H	0.114751	0.167001	0.21619
0	H	0.841659	0.951902	0.549602
0	H	0.0558432	0.889273	0.884806
0	H	0.894251	0.836482	0.716687
0	H	0.166587	0.0516218	0.0504255
0	H	0.953153	0.114744	0.382553
0	C	0.310444	0.461156	0.0305047
0	C	0.546596	0.850505	0.363736
0	C	0.156196	0.695908	0.698504
0	C	0.698373	0.542383	0.531241
0	C	0.461919	0.153491	0.864282
0	C	0.85273	0.308229	0.196551
0	C	0.400709	0.538007	0.98715
0	C	0.470481	0.864206	0.319888
0	C	0.142056	0.606019	0.654693
0	C	0.608143	0.465944	0.487654
0	C	0.538633	0.140343	0.820836
0	C	0.866913	0.398143	0.152723
0	H	0.480512	0.562827	0.0109767
0	H	0.445977	0.919188	0.343631
0	H	0.0866195	0.526318	0.678472
0	H	0.528351	0.440964	0.511551
0	H	0.56328	0.0855534	0.844722
0	H	0.922566	0.477836	0.176345
0	C	0.383988	0.579825	0.914995
0	C	0.429149	0.806295	0.247354
0	C	0.200029	0.622803	0.582216
0	C	0.624815	0.424806	0.41509
0	C	0.580311	0.198665	0.748489
0	C	0.808744	0.381367	0.0803282
0	H	0.452088	0.641203	0.880623
0	H	0.368474	0.813469	0.21254
0	H	0.192437	0.554865	0.5474
0	H	0.556684	0.363862	0.380457
0	H	0.64142	0.191914	0.713912
0	H	0.816212	0.449255	0.0455256
0	C	0.280439	0.544583	0.884715
0	C	0.464071	0.738063	0.217191
0	C	0.268852	0.726148	0.551979
0	C	0.728361	0.460224	0.384691
0	C	0.545255	0.266731	0.718217
0	C	0.739865	0.278018	0.0501428
0	H	0.269802	0.577611	0.826827
0	H	0.431409	0.694794	0.158992
0	H	0.312308	0.736978	0.49387
0	H	0.739015	0.427814	0.326478
0	H	0.578189	0.3103	0.660202
0	H	0.696228	0.267261	0.992132
0	C	0.191891	0.468504	0.928332
0	C	0.539268	0.725134	0.261351
0	C	0.282152	0.814346	0.596129
0	C	0.816896	0.53571	0.428667
0	C	0.469524	0.279167	0.76204
0	C	0.726725	0.189827	0.094159
0	C	0.0813596	0.425218	0.894796
0	C	0.581858	0.657566	0.228098
0	C	0.350157	0.924659	0.562777
0	C	0.927431	0.579043	0.395112
0	C	0.426992	0.346803	0.728877
0	C	0.658906	0.0795692	0.060677
0	C	0.988287	0.342539	0.945167
0	C	0.664516	0.64742	0.27849
0	C	0.360504	0.0174241	0.613106
0	C	0.020499	0.661503	0.445643
0	C	0.344023	0.356659	0.779091
0	C	0.648595	0.986772	0.110938
0	H	0.925446	0.28636	0.901525
0	H	0.72088	0.641431	0.23476
0	H	0.366536	0.079641	0.569352
0	H	0.0832472	0.717964	0.402044
0	H	0.287905	0.362894	0.735256
0	H	0.642694	0.924644	0.0671344
0	H	0.952456	0.383557	0.979665
0	H	0.623356	0.570127	0.312585
0	H	0.43799	0.0538908	0.647185
0	H	0.0564773	0.620398	0.479782
0	H	0.384999	0.433765	0.813465
0	H	0.571078	0.950213	0.144956
0	C	0.0125715	0.277956	0.00654684
0	C	0.729236	0.736419	0.340157
0	C	0.271483	0.992753	0.674883
0	C	0.996107	0.725666	0.507397
0	C	0.278981	0.267357	0.840424
0	C	0.737542	0.0114236	0.172766
0	H	0.944504	0.23008	0.0495489
0	H	0.776804	0.71619	0.383223
0	H	0.291954	0.0607372	0.717876
0	H	0.0641775	0.773545	0.550355
0	H	0.231292	0.287444	0.88351
0	H	0.716969	0.943402	0.215757
0	C	0.114748	0.353595	0.0559305
0	C	0.653588	0.762665	0.389433
0	C	0.245065	0.890984	0.724236
0	C	0.894001	0.649787	0.556778
0	C	0.354476	0.240952	0.88969
0	C	0.763923	0.113148	0.222175
0	C	0.207049	0.429293	0.00368415
0	C	0.578165	0.779049	0.336946
0	C	0.228125	0.79908	0.671743
0	C	0.801809	0.574378	0.504475
0	C	0.430068	0.224702	0.837485
0	C	0.780806	0.205069	0.169728
0	C	0.145743	0.457316	0.180519
0	C	0.549702	0.689339	0.514166
0	C	0.31804	0.86051	0.848983
0	C	0.863231	0.546375	0.68159
0	C	0.458902	0.314612	0.0139953
0	C	0.690917	0.143576	0.346923
0	C	0.12783	0.530699	0.225857
0	C	0.476131	0.597655	0.559552
0	C	0.409673	0.8788	0.89453
0	C	0.881447	0.473357	0.727186
0	C	0.533196	0.406412	0.0588796
0	C	0.599239	0.125419	0.39232
0	H	0.0686112	0.550634	0.20316
0	H	0.45593	0.518577	0.536744
0	H	0.489224	0.938163	0.872026
0	H	0.940712	0.453429	0.704607
0	H	0.55347	0.485438	0.0358768
0	H	0.519745	0.0664113	0.369504
0	C	0.184413	0.573075	0.297898
0	C	0.433763	0.611372	0.631692
0	C	0.395308	0.822322	0.966536
0	C	0.825165	0.431332	0.799402
0	C	0.576132	0.39281	0.130741
0	C	0.613491	0.181539	0.464512
0	H	0.174616	0.630952	0.334118
0	H	0.375628	0.54336	0.667857
0	H	0.463167	0.832453	0.00299463
0	H	0.835209	0.373726	0.835788
0	H	0.634835	0.460849	0.166566
0	H	0.545526	0.171378	0.500849
0	C	0.256877	0.541004	0.326916
0	C	0.46601	0.715884	0.660819
0	C	0.290322	0.749292	0.995216
0	C	0.752714	0.463417	0.828393
0	C	0.543774	0.288331	0.160027
0	C	0.71845	0.25401	0.493585
0	C	0.273872	0.467892	0.282559
0	C	0.539266	0.806386	0.616327
0	C	0.199855	0.732019	0.950759
0	C	0.73539	0.536158	0.783822
0	C	0.469844	0.197725	0.11599
0	C	0.80894	0.271454	0.449054
0	C	0.342866	0.428679	0.314567
0	C	0.578568	0.914568	0.648445
0	C	0.0911484	0.662231	0.982387
0	C	0.666486	0.575473	0.815848
0	C	0.430573	0.0895259	0.148146
0	C	0.917628	0.340886	0.480917
0	C	0.355439	0.347413	0.265504
0	C	0.659741	0.00888977	0.599193
0	C	0.997002	0.64981	0.933613
0	C	0.653672	0.65645	0.766599
0	C	0.349147	0.995145	0.099192
0	C	0.0117781	0.354077	0.431653
0	H	0.363436	0.29257	0.309488
0	H	0.714662	0.0722261	0.64309
0	H	0.934097	0.641716	0.977744
0	H	0.645803	0.711492	0.810452
0	H	0.294631	0.9318	0.143221
0	H	0.0751791	0.362715	0.475518
0	H	0.432694	0.389833	0.230954
0	H	0.616766	0.0428095	0.564674
0	H	0.961753	0.5728	0.898992
0	H	0.576283	0.613849	0.732252
0	H	0.391997	0.961355	0.064329
0	H	0.0462401	0.431016	0.397019
0	C	0.266054	0.281285	0.204166
0	C	0.726182	0.986532	0.537782
0	C	0.0201805	0.739027	0.872391
0	C	0.74283	0.722293	0.705002
0	C	0.282216	0.0173269	0.0381752
0	C	0.988794	0.265009	0.370348
0	H	0.286767	0.23383	0.161509
0	H	0.773431	0.0550054	0.495017
0	H	0.951836	0.718015	0.829566
0	H	0.721961	0.769561	0.662283
0	H	0.234727	0.948751	0.99554
0	H	0.057158	0.286213	0.327506
0	C	0.237998	0.355058	0.154172
0	C	0.652342	0.884205	0.487798
0	C	0.122689	0.767824	0.822496
0	C	0.770783	0.648363	0.655098
0	C	0.355813	0.119583	0.98807
0	C	0.886242	0.236225	0.320517
0	C	0.219063	0.429169	0.206641
0	C	0.57798	0.790805	0.540301
0	C	0.216122	0.787005	0.875
0	C	0.78987	0.574477	0.707714
0	C	0.430493	0.213154	0.0402655
0	C	0.792796	0.216906	0.373087
