#******************************************
#
# CIF file created by Zeo++
# Zeo++ is an open source package to
# analyze microporous materials
#
#*******************************************

_cell_length_a		12.2956(0)
_cell_length_b		14.6263(0)
_cell_length_c		19.8813(0)
_cell_angle_alpha		73.3343(0)
_cell_angle_beta		74.3967(0)
_cell_angle_gamma		60.6428(0)

_symmetry_space_group_name_H-M		'P1'
_symmetry_Int_Tables_number		1
_symmetry_cell_setting		Triclinic

loop_
_symmetry_equiv_pos_as_xyz
'+x,+y,+z'

loop_
_atom_site_label
_atom_site_type_symbol
_atom_site_fract_x
_atom_site_fract_y
_atom_site_fract_z
0	O	0.962227	0.412006	0.525012
0	O	0.046819	0.61913	0.468875
0	N	0.02988	0.282028	0.456625
0	N	0.97849	0.749139	0.537335
0	C	0.959442	0.388424	0.472271
0	C	0.049404	0.642807	0.521621
0	O	0.0576611	0.197603	0.365403
0	O	0.949697	0.83358	0.628772
0	N	0.0949908	0.297532	0.208913
0	N	0.914367	0.732769	0.785542
0	C	0.882867	0.461262	0.412444
0	C	0.126105	0.57016	0.581457
0	H	0.779965	0.493404	0.43648
0	H	0.228966	0.538352	0.557404
0	O	0.303371	0.262925	0.175078
0	O	0.706087	0.767197	0.819401
0	N	0.770562	0.346686	0.262111
0	N	0.238403	0.684702	0.731917
0	C	0.912119	0.556602	0.378613
0	C	0.0972463	0.47461	0.615277
0	H	0.830132	0.62163	0.352738
0	H	0.17929	0.409765	0.641184
0	H	0.918385	0.589039	0.421126
0	H	0.0912006	0.442055	0.572763
0	O	0.182695	0.118676	0.188945
0	O	0.825844	0.91151	0.805698
0	N	0.553343	0.345648	0.558632
0	N	0.456278	0.684441	0.435607
0	C	0.0334441	0.532136	0.324339
0	C	0.975887	0.49895	0.669502
0	H	0.115279	0.500598	0.352501
0	H	0.894007	0.530841	0.641213
0	H	0.0284442	0.608737	0.289628
0	H	0.980635	0.422292	0.704111
0	O	0.972762	0.214959	0.221161
0	O	0.0359462	0.815977	0.773223
0	N	0.384832	0.21535	0.762049
0	N	0.626452	0.814285	0.235047
0	C	0.0571912	0.456203	0.278979
0	C	0.952223	0.574562	0.715095
0	O	0.756329	0.310756	0.497268
0	O	0.252845	0.718736	0.496032
0	N	0.54217	0.314324	0.837602
0	N	0.479479	0.70919	0.158044
0	C	0.168997	0.408503	0.237985
0	C	0.840597	0.621723	0.756394
0	O	0.378357	0.380927	0.64764
0	O	0.632575	0.648821	0.347514
0	C	0.20018	0.318717	0.203865
0	C	0.809257	0.711465	0.79057
0	O	0.432133	0.988463	0.691451
0	O	0.569237	0.0465007	0.304145
0	C	0.0980667	0.201314	0.203852
0	C	0.910866	0.82911	0.790653
0	O	0.160809	0.282147	0.780435
0	O	0.849359	0.752617	0.219
0	C	0.886983	0.31791	0.238743
0	C	0.12208	0.713192	0.755394
0	O	0.335619	0.344559	0.851792
0	O	0.682896	0.687359	0.141847
0	C	0.961763	0.382155	0.222989
0	C	0.0477323	0.648564	0.771145
0	C	0.944808	0.437019	0.283805
0	C	0.0644063	0.594066	0.710186
0	H	0.860449	0.51882	0.274156
0	H	0.14898	0.512314	0.719593
0	C	0.909331	0.388202	0.36068
0	C	0.0991878	0.643298	0.633288
0	H	0.821111	0.379761	0.364992
0	H	0.187049	0.652318	0.628849
0	C	0.00781665	0.277666	0.390161
0	C	0.000130814	0.753581	0.603898
0	C	0.116372	0.0881214	0.503954
0	C	0.892872	0.942818	0.489558
0	H	0.0776131	0.078237	0.464601
0	H	0.932456	0.952562	0.52856
0	C	0.183907	0.999438	0.552173
0	C	0.825197	0.0315138	0.441383
0	H	0.197087	0.920732	0.550354
0	H	0.812678	0.110144	0.442897
0	C	0.233958	0.0111196	0.602718
0	C	0.774171	0.0199415	0.391264
0	H	0.287146	0.942067	0.640378
0	H	0.72083	0.0890217	0.353687
0	C	0.216197	0.112211	0.605149
0	C	0.791151	0.918973	0.389173
0	H	0.254932	0.120872	0.645104
0	H	0.75159	0.910482	0.349553
0	C	0.149996	0.201656	0.557036
0	C	0.857599	0.829489	0.437206
0	H	0.136709	0.28014	0.559522
0	H	0.870476	0.751049	0.434942
0	C	0.100208	0.1894	0.506067
0	C	0.908183	0.841677	0.487825
0	C	0.27464	0.438843	0.224394
0	C	0.735738	0.590289	0.770642
0	H	0.282829	0.455291	0.273883
0	H	0.726958	0.573715	0.72139
0	H	0.367094	0.369608	0.210606
0	H	0.643004	0.658896	0.784953
0	C	0.255541	0.535483	0.164409
0	C	0.757084	0.493299	0.83055
0	H	0.329192	0.560987	0.156513
0	H	0.685338	0.465746	0.838381
0	H	0.163786	0.603855	0.175179
0	H	0.850034	0.426113	0.819733
0	H	0.257831	0.517234	0.113981
0	H	0.753565	0.512172	0.881013
0	C	0.706903	0.279084	0.273933
0	C	0.30229	0.752084	0.72023
0	H	0.642901	0.290217	0.326145
0	H	0.365968	0.741241	0.667893
0	H	0.773492	0.192229	0.27873
0	H	0.235839	0.838949	0.71572
0	C	0.629124	0.316418	0.215076
0	C	0.380575	0.714095	0.778935
0	H	0.559731	0.400718	0.211183
0	H	0.449756	0.629717	0.782597
0	C	0.594373	0.238937	0.199594
0	C	0.415939	0.79107	0.794598
0	H	0.62605	0.157773	0.230237
0	H	0.384307	0.872367	0.764155
0	H	0.49958	0.267773	0.18757
0	H	0.510943	0.76185	0.806533
0	C	0.689269	0.271366	0.146839
0	C	0.321003	0.758713	0.847344
0	H	0.788776	0.214027	0.140438
0	H	0.221572	0.816229	0.853933
0	H	0.66395	0.323305	0.0963458
0	H	0.346469	0.706407	0.897734
0	C	0.926195	0.46801	0.154915
0	C	0.0840311	0.562567	0.839104
0	H	0.825031	0.527718	0.165784
0	H	0.184897	0.50271	0.827832
0	H	0.980119	0.515042	0.143435
0	H	0.0296066	0.515869	0.850979
0	C	0.0639526	0.391605	0.0461154
0	C	0.948073	0.639664	0.948051
0	H	0.14178	0.395187	0.0596771
0	H	0.869177	0.637725	0.934509
0	C	0.0812746	0.355026	0.984599
0	C	0.932339	0.675275	0.00972225
0	H	0.173007	0.329498	0.950327
0	H	0.840755	0.701573	0.0441574
0	C	0.981298	0.351418	0.966496
0	C	0.0337268	0.676796	0.0277625
0	H	0.995659	0.322288	0.91863
0	H	0.0207872	0.705018	0.0757714
0	C	0.863889	0.384574	0.0101864
0	C	0.150826	0.642726	0.983818
0	H	0.786068	0.38148	0.996374
0	H	0.229718	0.644243	0.997603
0	C	0.845991	0.421382	0.0717652
0	C	0.16706	0.606993	0.922075
0	H	0.754554	0.446615	0.105933
0	H	0.258305	0.580981	0.887752
0	C	0.946131	0.425068	0.0900279
0	C	0.0656201	0.605125	0.903925
0	C	0.686315	0.310026	0.553034
0	C	0.323598	0.719328	0.440547
0	C	0.719336	0.275249	0.628039
0	C	0.292215	0.752468	0.365254
0	H	0.755942	0.328454	0.63456
0	H	0.257735	0.697677	0.358881
0	C	0.823221	0.15959	0.637594
0	C	0.186937	0.867349	0.354494
0	H	0.903281	0.150625	0.593132
0	H	0.106057	0.876081	0.398397
0	H	0.864258	0.141193	0.686078
0	H	0.148042	0.883828	0.305665
0	C	0.774187	0.0798696	0.641882
0	C	0.232981	0.949088	0.350143
0	H	0.84323	0.996693	0.662699
0	H	0.163699	0.0313315	0.328057
0	H	0.770476	0.0741299	0.587933
0	H	0.233638	0.957014	0.404115
0	C	0.647729	0.103835	0.68716
0	C	0.360436	0.925652	0.306238
0	C	0.579625	0.0576933	0.686584
0	C	0.426241	0.973521	0.307446
0	C	0.503981	0.0204478	0.689463
0	C	0.499421	0.0127826	0.305472
0	C	0.269417	0.251115	0.779483
0	C	0.741705	0.781336	0.218659
0	C	0.446822	0.289745	0.832814
0	C	0.571153	0.738644	0.161875
0	C	0.491111	0.195885	0.792525
0	C	0.522652	0.832755	0.202718
0	C	0.604708	0.188547	0.731716
0	C	0.407295	0.839637	0.262099
0	H	0.685868	0.162831	0.760789
0	H	0.328173	0.863811	0.231872
0	C	0.593132	0.293025	0.679708
0	C	0.418889	0.735311	0.314235
0	H	0.569738	0.35476	0.711266
0	H	0.443886	0.672992	0.282741
0	C	0.491502	0.341985	0.631832
0	C	0.519337	0.687474	0.362686
0	C	0.381294	0.368889	0.504387
0	C	0.626793	0.662251	0.490683
0	H	0.346664	0.329515	0.554567
0	H	0.661643	0.701715	0.44064
0	C	0.319168	0.405467	0.445728
0	C	0.688087	0.626071	0.549621
0	H	0.234851	0.395334	0.450662
0	H	0.771855	0.636775	0.545112
0	C	0.364853	0.453864	0.380854
0	C	0.642131	0.577451	0.61429
0	H	0.31711	0.479836	0.334743
0	H	0.689202	0.551733	0.660644
0	C	0.472925	0.466345	0.374567
0	C	0.534668	0.564331	0.620065
0	H	0.511137	0.501229	0.323477
0	H	0.496212	0.529287	0.670974
0	C	0.534859	0.432292	0.433014
0	C	0.473548	0.598015	0.561325
0	H	0.619176	0.442524	0.427589
0	H	0.389736	0.587255	0.566342
0	C	0.488984	0.383043	0.497918
0	C	0.519687	0.647511	0.496652
0	C	0.63782	0.815037	0.611367
0	C	0.369787	0.21718	0.38446
0	H	0.733705	0.788204	0.616321
0	H	0.273581	0.244459	0.380009
0	H	0.581646	0.786239	0.654201
0	H	0.425618	0.24613	0.34149
0	C	0.584044	0.891099	0.549892
0	C	0.424586	0.140004	0.445356
0	H	0.596101	0.850451	0.507114
0	H	0.414042	0.179655	0.488332
0	H	0.629772	0.944178	0.525111
0	H	0.378565	0.0871412	0.470121
0	H	0.481339	0.941148	0.562035
0	H	0.527088	0.0897178	0.432478
0	C	0.574254	0.322256	0.891365
0	C	0.445997	0.701179	0.104881
0	H	0.646487	0.352223	0.879242
0	H	0.377235	0.66737	0.11777
0	C	0.532259	0.293287	0.968373
0	C	0.482702	0.734413	0.0277392
0	H	0.598617	0.212128	0.991477
0	H	0.415684	0.816808	0.0071024
0	C	0.39327	0.333203	4.2271e-05
0	C	0.620479	0.694748	0.993513
0	H	0.363754	0.280597	0.0437823
0	H	0.648672	0.748656	0.950233
0	H	0.321663	0.381394	0.964989
0	H	0.694487	0.643941	0.0267773
0	C	0.469527	0.379527	0.0137295
0	C	0.540596	0.651691	0.980001
0	H	0.452201	0.461088	0.988816
0	H	0.557611	0.569741	0.00315602
0	H	0.494308	0.359261	0.0666637
0	H	0.512179	0.67563	0.927648
0	C	0.5339	0.0911664	0.848826
0	C	0.480356	0.937277	0.146254
0	H	0.594831	0.0214247	0.820923
0	H	0.419259	0.00721255	0.173943
0	H	0.599467	0.0889946	0.879052
0	H	0.415101	0.939405	0.115809
0	C	0.38321	0.00980813	0.88354
0	C	0.633263	0.0160803	0.112824
0	H	0.42367	0.976847	0.834845
0	H	0.593691	0.0478099	0.161989
0	C	0.28659	0.990005	0.930399
0	C	0.730099	0.0358434	0.0661983
0	H	0.250996	0.943056	0.917347
0	H	0.7667	0.0815758	0.0798451
0	C	0.235388	0.0306383	0.993451
0	C	0.780192	0.996638	0.00261722
0	H	0.159455	0.0159452	0.0297397
0	H	0.856209	0.0113509	0.966422
0	C	0.281175	0.0913233	0.00949859
0	C	0.733296	0.937306	0.985889
0	H	0.24151	0.123066	0.058821
0	H	0.772537	0.90632	0.936303
0	C	0.377352	0.111844	0.962482
0	C	0.636565	0.917166	0.0325135
0	H	0.412972	0.158526	0.975731
0	H	0.599811	0.871799	0.0186395
0	C	0.428625	0.0716096	0.899071
0	C	0.586264	0.956169	0.0963661
