#******************************************
#
# CIF file created by Zeo++
# Zeo++ is an open source package to
# analyze microporous materials
#
#*******************************************

_cell_length_a		31.9848(0)
_cell_length_b		11.1306(0)
_cell_length_c		7.15648(0)
_cell_angle_alpha		90(0)
_cell_angle_beta		99.3782(0)
_cell_angle_gamma		90(0)

_symmetry_space_group_name_H-M		'P1'
_symmetry_Int_Tables_number		1
_symmetry_cell_setting		Monoclinic

loop_
_symmetry_equiv_pos_as_xyz
'+x,+y,+z'

loop_
_atom_site_label
_atom_site_type_symbol
_atom_site_fract_x
_atom_site_fract_y
_atom_site_fract_z
0	N	0.839713	0.262579	0.546076
0	N	0.194112	0.262525	0.531904
0	N	0.336667	0.746704	0.548373
0	N	0.69715	0.746754	0.529635
0	N	0.960193	0.105584	0.590185
0	N	0.073612	0.105531	0.487787
0	N	0.458396	0.589901	0.590377
0	N	0.575405	0.589943	0.48749
0	O	0.892166	0.648612	0.0673217
0	O	0.141725	0.648539	0.0109795
0	O	0.382442	0.145618	0.0783113
0	O	0.651446	0.145589	0.999887
0	O	0.898779	0.985605	0.505838
0	O	0.135029	0.985572	0.572195
0	O	0.396184	0.472956	0.511459
0	O	0.637618	0.473043	0.566529
0	O	0.0232488	0.0882543	0.783393
0	O	0.0105612	0.0882308	0.294584
0	O	0.521722	0.566906	0.780175
0	O	0.512091	0.566866	0.297662
0	C	0.902554	0.846691	0.97876
0	C	0.131289	0.846621	0.0994192
0	C	0.396787	0.340758	0.987249
0	C	0.637054	0.34074	0.0908102
0	C	0.894804	0.726851	0.919058
0	C	0.139043	0.726785	0.159065
0	C	0.386621	0.221765	0.929426
0	C	0.647226	0.221782	0.148772
0	C	0.889348	0.694238	0.727605
0	C	0.144474	0.694186	0.350594
0	C	0.380335	0.187945	0.73824
0	C	0.653484	0.187948	0.339871
0	C	0.891304	0.783424	0.591983
0	C	0.142507	0.78342	0.486143
0	C	0.384165	0.274572	0.601055
0	C	0.649637	0.274686	0.477065
0	C	0.898438	0.902894	0.650755
0	C	0.135369	0.902865	0.427386
0	C	0.394072	0.393051	0.658165
0	C	0.639735	0.393087	0.419831
0	C	0.904277	0.936242	0.843809
0	C	0.129547	0.9362	0.23414
0	C	0.400601	0.427594	0.850667
0	C	0.633221	0.427642	0.22733
0	C	0.914397	0.065492	0.898844
0	C	0.11943	0.065425	0.179216
0	C	0.41315	0.555587	0.903344
0	C	0.62066	0.555556	0.174566
0	C	0.897549	0.153341	0.737424
0	C	0.13628	0.153271	0.34057
0	C	0.3963	0.642404	0.740668
0	C	0.637519	0.642474	0.337268
0	C	0.913393	0.107946	0.556625
0	C	0.120414	0.107951	0.521404
0	C	0.411639	0.594988	0.559722
0	C	0.622156	0.595032	0.518171
0	C	0.896389	0.181374	0.379144
0	C	0.137419	0.181388	0.698787
0	C	0.394061	0.667595	0.382287
0	C	0.639735	0.667715	0.695639
0	C	0.848835	0.208396	0.364654
0	C	0.184974	0.208337	0.713438
0	C	0.346237	0.690547	0.368856
0	C	0.68756	0.690594	0.709101
0	C	0.849271	0.170996	0.70182
0	C	0.18452	0.170954	0.376275
0	C	0.347871	0.658223	0.707554
0	C	0.685937	0.658267	0.37035
0	C	0.962791	0.0817332	0.940932
0	C	0.0710303	0.0816802	0.13708
0	C	0.461764	0.565845	0.94169
0	C	0.572065	0.565851	0.136207
0	C	0.984267	0.0897298	0.768959
0	C	0.0495513	0.0897064	0.309012
0	C	0.482854	0.571811	0.768312
0	C	0.550949	0.571851	0.309564
0	C	0.893196	0.520845	0.0287952
0	C	0.140623	0.520761	0.0493743
0	C	0.382292	0.0174038	0.0419027
0	C	0.651532	0.0173849	0.0362863
0	H	0.922209	0.49698	0.975283
0	H	0.111555	0.497002	0.102524
0	H	0.411085	0.990376	0.989108
0	H	0.62268	0.990452	0.0886689
0	H	0.86474	0.493493	0.931354
0	H	0.169027	0.493307	0.147105
0	H	0.353663	0.991318	0.944675
0	H	0.680103	0.991197	0.133815
0	H	0.893139	0.482251	0.170057
0	H	0.140743	0.482196	0.90817
0	H	0.381756	0.979828	0.183498
0	H	0.652139	0.979826	0.894717
0	C	0.794578	0.307591	0.525955
0	C	0.239234	0.307559	0.552122
0	C	0.290657	0.784655	0.526416
0	C	0.743147	0.784692	0.551559
0	H	0.771615	0.230378	0.503348
0	H	0.262205	0.230351	0.574731
0	H	0.26933	0.703952	0.497834
0	H	0.764478	0.703994	0.580176
0	C	0.787675	0.374965	0.705805
0	C	0.246129	0.3749	0.372178
0	C	0.281144	0.8455	0.707536
0	C	0.752656	0.845517	0.370395
0	H	0.811458	0.445646	0.744194
0	H	0.222294	0.445427	0.333629
0	H	0.301994	0.922693	0.748347
0	H	0.731762	0.922587	0.329434
0	H	0.78902	0.314801	0.827935
0	H	0.244849	0.3147	0.250146
0	H	0.284463	0.783232	0.827893
0	H	0.749394	0.783197	0.250124
0	H	0.756351	0.417952	0.684271
0	H	0.277418	0.418088	0.393778
0	H	0.248371	0.878822	0.686012
0	H	0.785408	0.879009	0.391981
0	C	0.785369	0.393915	0.35935
0	C	0.248444	0.39391	0.718646
0	C	0.280189	0.873848	0.363841
0	C	0.753617	0.873924	0.714089
0	C	0.812268	0.4913	0.341227
0	C	0.221536	0.491296	0.736733
0	C	0.304269	0.978322	0.353547
0	C	0.729543	0.97839	0.724375
0	C	0.803188	0.569592	0.187441
0	C	0.230638	0.569642	0.890466
0	C	0.293062	0.0602876	0.205744
0	C	0.740753	0.0604114	0.872099
0	C	0.766915	0.55199	0.0522352
0	C	0.266895	0.552075	0.0256614
0	C	0.257566	0.038962	0.0680305
0	C	0.776277	0.0390657	0.0098376
0	H	0.760004	0.613069	0.932441
0	H	0.273821	0.613192	0.145372
0	H	0.248791	0.102916	0.952913
0	H	0.785056	0.103075	0.124871
0	C	0.739693	0.456078	0.0712468
0	C	0.294114	0.456089	0.00676337
0	C	0.2333	0.935322	0.0783307
0	C	0.800513	0.935398	0.99959
0	C	0.748918	0.376903	0.223862
0	C	0.284887	0.376908	0.854168
0	C	0.244519	0.852993	0.225319
0	C	0.789292	0.853051	0.852632
0	H	0.907626	0.866996	0.129857
0	H	0.126228	0.866881	0.948257
0	H	0.402055	0.362644	0.137897
0	H	0.631798	0.362594	0.940146
0	H	0.884064	0.601154	0.68353
0	H	0.149755	0.601113	0.394692
0	H	0.37294	0.0955674	0.695556
0	H	0.660876	0.095617	0.38266
0	H	0.887791	0.760709	0.441837
0	H	0.145998	0.760712	0.636288
0	H	0.380024	0.251176	0.450992
0	H	0.653756	0.251268	0.627094
0	H	0.900986	0.0887599	0.0307372
0	H	0.132825	0.0886868	0.047264
0	H	0.400706	0.581739	0.0366183
0	H	0.63311	0.581737	0.0413018
0	H	0.911965	0.244355	0.772667
0	H	0.121846	0.244318	0.305307
0	H	0.410654	0.733553	0.773261
0	H	0.623154	0.733575	0.304606
0	H	0.840496	0.504893	0.447102
0	H	0.193306	0.504848	0.630889
0	H	0.331907	0.995367	0.4612
0	H	0.701897	0.995417	0.616767
0	H	0.824697	0.643999	0.171987
0	H	0.209117	0.644058	0.90587
0	H	0.312375	0.140587	0.197024
0	H	0.721458	0.140702	0.880826
0	H	0.711176	0.442106	0.967208
0	H	0.322622	0.442111	0.11085
0	H	0.205382	0.918257	0.972199
0	H	0.828429	0.918303	0.105752
0	H	0.72744	0.302371	0.237108
0	H	0.306359	0.302344	0.840973
0	H	0.224943	0.773382	0.232659
0	H	0.808853	0.773415	0.845311
0	H	0.914363	0.267075	0.383641
0	H	0.119443	0.267073	0.694329
0	H	0.411251	0.754449	0.386303
0	H	0.622548	0.754543	0.691514
0	H	0.902085	0.132714	0.24865
0	H	0.131705	0.132694	0.829384
0	H	0.399994	0.619496	0.251469
0	H	0.633781	0.619614	0.826385
0	H	0.839649	0.274039	0.247821
0	H	0.194157	0.274003	0.83017
0	H	0.335833	0.753371	0.249472
0	H	0.697964	0.753402	0.828439
0	H	0.830219	0.124773	0.325293
0	H	0.203576	0.124739	0.752761
0	H	0.328868	0.604358	0.335373
0	H	0.704913	0.604393	0.742585
0	H	0.83876	0.206103	0.831864
0	H	0.195057	0.206076	0.246118
0	H	0.337717	0.694696	0.837574
0	H	0.696086	0.694774	0.240369
0	H	0.832662	0.0839257	0.668605
0	H	0.201155	0.0838666	0.40941
0	H	0.331714	0.56987	0.679686
0	H	0.702099	0.569933	0.398232
0	H	0.971479	0.162463	0.031411
0	H	0.0623455	0.162373	0.0465546
0	H	0.47193	0.645088	0.0333625
0	H	0.56189	0.645054	0.04451
0	H	0.977628	0.0073263	0.034282
0	H	0.0561913	0.00724106	0.0436925
0	H	0.475783	0.489538	0.0330993
0	H	0.558041	0.489519	0.0447968
0	H	0.976151	0.0975773	0.473405
0	H	0.0576483	0.0975823	0.604544
0	H	0.473983	0.579407	0.47318
0	H	0.559806	0.57947	0.60466
