#******************************************
#
# CIF file created by Zeo++
# Zeo++ is an open source package to
# analyze microporous materials
#
#*******************************************

_cell_length_a		13.5816(0)
_cell_length_b		23.4323(0)
_cell_length_c		10.8848(0)
_cell_angle_alpha		90(0)
_cell_angle_beta		96.0184(0)
_cell_angle_gamma		90(0)

_symmetry_space_group_name_H-M		'P1'
_symmetry_Int_Tables_number		1
_symmetry_cell_setting		Monoclinic

loop_
_symmetry_equiv_pos_as_xyz
'+x,+y,+z'

loop_
_atom_site_label
_atom_site_type_symbol
_atom_site_fract_x
_atom_site_fract_y
_atom_site_fract_z
0	C	0.666657	0.0223468	0.488953
0	C	0.310306	0.51779	0.051283
0	C	0.313403	0.958629	0.554518
0	C	0.669776	0.462942	0.991795
0	C	0.681673	0.0713456	0.410073
0	C	0.294655	0.566362	0.130989
0	C	0.298297	0.909588	0.633234
0	C	0.685318	0.414372	0.912041
0	C	0.422528	0.955624	0.910185
0	C	0.560972	0.45524	0.633311
0	C	0.557239	0.0252427	0.132953
0	C	0.418814	0.525504	0.409549
0	C	0.594552	0.979681	0.6721
0	C	0.387175	0.476427	0.870325
0	C	0.385296	0.00128221	0.371186
0	C	0.592568	0.504373	0.172447
0	C	0.615489	0.0256846	0.588448
0	C	0.365905	0.521441	0.955942
0	C	0.364277	0.955271	0.45477
0	C	0.613764	0.459378	0.0867593
0	N	0.742024	0.217473	0.200031
0	N	0.233488	0.711591	0.343317
0	N	0.237902	0.763389	0.843044
0	N	0.746393	0.269095	0.699813
0	C	0.528428	0.989275	0.755818
0	C	0.454849	0.48681	0.788968
0	C	0.451372	0.991676	0.287418
0	C	0.52481	0.494004	0.253704
0	C	0.500721	0.946419	0.840863
0	C	0.481791	0.445341	0.700609
0	C	0.479081	0.034509	0.202312
0	C	0.497893	0.535454	0.342116
0	C	0.716687	0.168069	0.262717
0	C	0.259056	0.662457	0.279611
0	C	0.263194	0.812794	0.780347
0	C	0.720795	0.31826	0.76344
0	C	0.656573	0.892356	0.793491
0	C	0.323534	0.391795	0.741384
0	C	0.323253	0.0885706	0.249712
0	C	0.656193	0.58898	0.301493
0	C	0.752171	0.0693679	0.323592
0	C	0.222254	0.564368	0.214929
0	C	0.227748	0.911525	0.719656
0	C	0.757727	0.416332	0.828103
0	C	0.626706	0.121961	0.417582
0	C	0.350898	0.61667	0.126331
0	C	0.353152	0.858941	0.625529
0	C	0.628939	0.364112	0.916593
0	C	0.769473	0.116206	0.251065
0	C	0.204853	0.610901	0.288324
0	C	0.210394	0.864646	0.79204
0	C	0.775065	0.369789	0.754712
0	C	0.643144	0.922558	0.665563
0	C	0.337008	0.419604	0.871771
0	C	0.3367	0.0584009	0.377678
0	C	0.642833	0.561171	0.171103
0	C	0.546044	0.238887	0.0654317
0	C	0.431365	0.733536	0.47419
0	C	0.433918	0.74171	0.97723
0	C	0.548342	0.247511	0.569285
0	C	0.5562	0.891255	0.850085
0	C	0.424294	0.390964	0.685553
0	C	0.423591	0.0896621	0.193041
0	C	0.555349	0.58986	0.357121
0	C	0.583928	0.275611	0.160188
0	C	0.391929	0.770004	0.379749
0	C	0.39581	0.705057	0.882475
0	C	0.587798	0.210823	0.663261
0	C	0.391518	0.915223	0.995483
0	C	0.590807	0.416594	0.543859
0	C	0.588225	0.0655407	0.0474251
0	C	0.388843	0.564175	0.49887
0	C	0.689867	0.272217	0.222218
0	C	0.284911	0.766618	0.321301
0	C	0.289845	0.708609	0.820597
0	C	0.694835	0.214104	0.721764
0	C	0.642856	0.169247	0.345742
0	C	0.334301	0.66372	0.198613
0	C	0.336963	0.811622	0.697238
0	C	0.645473	0.317049	0.844319
0	N	0.365311	0.882665	0.0653558
0	N	0.615858	0.385483	0.470377
0	N	0.614372	0.097968	0.977237
0	N	0.36359	0.595295	0.57221
0	C	0.690385	0.830534	0.7766
0	C	0.287817	0.329988	0.752811
0	C	0.289407	0.150395	0.266515
0	C	0.692016	0.650774	0.290132
0	C	0.365451	0.00659099	0.896591
0	C	0.62066	0.504926	0.653783
0	C	0.614089	0.974185	0.146426
0	C	0.359283	0.475747	0.389282
0	C	0.897807	0.213167	0.0972091
0	C	0.0787862	0.70688	0.448902
0	C	0.0819978	0.767609	0.945652
0	C	0.900899	0.273877	0.593847
0	C	0.5214	0.317167	0.20364
0	C	0.45367	0.8112	0.333536
0	C	0.458065	0.663379	0.83894
0	C	0.526015	0.169522	0.709096
0	C	0.44748	0.243857	0.0144087
0	C	0.530805	0.738152	0.521838
0	C	0.532463	0.736552	0.0282169
0	C	0.448817	0.243079	0.521816
0	C	0.783986	0.211146	0.0793734
0	C	0.192651	0.704457	0.464528
0	C	0.195816	0.769673	0.963621
0	C	0.787034	0.276224	0.578463
0	C	0.385629	0.285008	0.0584916
0	C	0.59191	0.778926	0.474918
0	C	0.594039	0.695264	0.984086
0	C	0.387676	0.202249	0.568426
0	C	0.734722	0.924166	0.879865
0	C	0.246763	0.425744	0.657365
0	C	0.245091	0.0567523	0.163412
0	C	0.732817	0.554994	0.385629
0	C	0.939183	0.200957	0.974125
0	C	0.0388966	0.694636	0.572955
0	C	0.0404644	0.779915	0.0685926
0	C	0.940588	0.286073	0.469657
0	C	0.751207	0.323298	0.18658
0	C	0.224426	0.817289	0.361111
0	C	0.228397	0.65754	0.856123
0	C	0.755231	0.163424	0.681998
0	N	0.319752	0.0483148	0.882746
0	N	0.668797	0.545421	0.67346
0	N	0.659451	0.932332	0.160109
0	N	0.311284	0.435189	0.369788
0	C	0.422931	0.321823	0.153394
0	C	0.552977	0.815611	0.380642
0	C	0.556514	0.658526	0.889161
0	C	0.426673	0.165279	0.66216
0	C	0.0526654	0.202886	0.986426
0	C	0.925435	0.696718	0.563123
0	C	0.926982	0.777946	0.0560672
0	C	0.0540377	0.28408	0.479267
0	C	0.204805	0.193101	0.87123
0	C	0.775156	0.686839	0.682173
0	C	0.774666	0.787909	0.170858
0	C	0.204111	0.293936	0.359824
0	C	0.0919021	0.192746	0.860916
0	C	0.887957	0.685917	0.689434
0	C	0.887568	0.788302	0.181393
0	C	0.091316	0.294776	0.352792
0	H	0.69983	0.982156	0.462462
0	H	0.273809	0.477952	0.0731996
0	H	0.280523	0.998843	0.58127
0	H	0.706683	0.502699	0.970231
0	H	0.583833	0.0670918	0.611736
0	H	0.401044	0.562574	0.937843
0	H	0.395631	0.913815	0.431214
0	H	0.578231	0.418318	0.104469
0	H	0.493661	0.0312472	0.759595
0	H	0.491263	0.528457	0.789618
0	H	0.48609	0.949686	0.283653
0	H	0.488341	0.452373	0.252952
0	H	0.7943	0.0302188	0.313881
0	H	0.17884	0.525492	0.222086
0	H	0.185593	0.95066	0.729413
0	H	0.801197	0.45519	0.820951
0	H	0.569723	0.124373	0.48162
0	H	0.409162	0.619028	0.0639988
0	H	0.410066	0.856532	0.561396
0	H	0.5706	0.3618	0.97883
0	H	0.824747	0.113269	0.185762
0	H	0.148122	0.608048	0.351688
0	H	0.155051	0.867546	0.857257
0	H	0.831782	0.372612	0.69132
0	H	0.716022	0.926037	0.629021
0	H	0.263996	0.42288	0.908031
0	H	0.263783	0.0549279	0.41415
0	H	0.715914	0.557865	0.134904
0	H	0.597277	0.895461	0.597725
0	H	0.381868	0.391042	0.937621
0	H	0.382558	0.0855207	0.445457
0	H	0.598036	0.589741	0.105185
0	H	0.569553	0.876645	0.94778
0	H	0.411053	0.37842	0.586599
0	H	0.410189	0.104208	0.0953343
0	H	0.568478	0.602472	0.456083
0	H	0.507329	0.857504	0.803608
0	H	0.471722	0.355912	0.729149
0	H	0.472411	0.123453	0.239264
0	H	0.507918	0.624881	0.313246
0	H	0.686134	0.274757	0.325602
0	H	0.286116	0.769853	0.217592
0	H	0.293473	0.706135	0.717188
0	H	0.693556	0.210875	0.825461
0	H	0.597258	0.207055	0.35376
0	H	0.38074	0.701311	0.192458
0	H	0.382483	0.773793	0.689097
0	H	0.598945	0.279492	0.850412
0	H	0.698794	0.807456	0.864865
0	H	0.278049	0.308697	0.662507
0	H	0.281108	0.173453	0.178222
0	H	0.701842	0.672043	0.380462
0	H	0.762263	0.828763	0.739547
0	H	0.216253	0.328056	0.790662
0	H	0.217452	0.152167	0.303386
0	H	0.763563	0.652675	0.25224
0	H	0.637235	0.8064	0.714059
0	H	0.340522	0.304191	0.812452
0	H	0.342481	0.174537	0.329154
0	H	0.639337	0.676606	0.230544
0	H	0.923041	0.255422	0.133587
0	H	0.0535282	0.749259	0.413243
0	H	0.0568722	0.725326	0.909491
0	H	0.926251	0.231544	0.629506
0	H	0.926798	0.181927	0.168332
0	H	0.0486671	0.675821	0.377924
0	H	0.0530267	0.798749	0.874383
0	H	0.931051	0.304989	0.66457
0	H	0.755292	0.245985	0.0154169
0	H	0.22242	0.738659	0.529483
0	H	0.224504	0.734831	0.0275583
0	H	0.757284	0.241958	0.513659
0	H	0.758376	0.170399	0.0336015
0	H	0.218133	0.663287	0.508423
0	H	0.221365	0.810429	0.00945156
0	H	0.761387	0.317341	0.534501
0	H	0.749436	0.902463	0.969371
0	H	0.231174	0.405568	0.566333
0	H	0.230545	0.078363	0.0737264
0	H	0.748409	0.575214	0.4767
0	H	0.805488	0.927272	0.840606
0	H	0.176067	0.429025	0.696773
0	H	0.174248	0.0537833	0.202534
0	H	0.803536	0.551632	0.346296
0	H	0.711166	0.967709	0.899047
0	H	0.271993	0.469328	0.641652
0	H	0.268503	0.0131485	0.14452
0	H	0.707483	0.511439	0.401379
0	H	0.908817	0.232246	0.903539
0	H	0.070253	0.725828	0.643129
0	H	0.070763	0.74869	0.139324
0	H	0.909203	0.254783	0.39961
0	H	0.913367	0.158583	0.938835
0	H	0.0649325	0.65219	0.60759
0	H	0.066202	0.82232	0.103763
0	H	0.914387	0.328469	0.434907
0	H	0.71884	0.363502	0.215402
0	H	0.256019	0.85785	0.333036
0	H	0.260548	0.61733	0.826973
0	H	0.723546	0.122911	0.709952
0	H	0.827298	0.321093	0.231617
0	H	0.147599	0.815288	0.318454
0	H	0.152256	0.659889	0.81129
0	H	0.832037	0.16533	0.724734
0	H	0.755701	0.326162	0.0866072
0	H	0.222056	0.81916	0.461632
0	H	0.224071	0.654583	0.956115
0	H	0.757675	0.161536	0.581482
0	H	0.0792128	0.24455	0.0246399
0	H	0.898638	0.738597	0.526528
0	H	0.900536	0.736205	0.0181746
0	H	0.0809789	0.242248	0.515984
0	H	0.0835314	0.170434	0.0536674
0	H	0.893573	0.66463	0.495607
0	H	0.896154	0.810264	0.98848
0	H	0.0859329	0.316254	0.546575
0	H	0.591839	0.205519	0.0307849
0	H	0.385776	0.700716	0.511159
0	H	0.388276	0.775145	0.0119147
0	H	0.593949	0.280365	0.532484
0	H	0.419238	0.215019	0.940249
0	H	0.56029	0.709448	0.595631
0	H	0.560904	0.765339	0.102381
0	H	0.419322	0.271954	0.448353
0	H	0.308376	0.287943	0.0198416
0	H	0.669684	0.781876	0.510876
0	H	0.671269	0.692157	0.0227261
0	H	0.309861	0.19944	0.53261
0	H	0.37491	0.353739	0.189325
0	H	0.600357	0.847318	0.342799
0	H	0.604324	0.626507	0.853197
0	H	0.379237	0.1335	0.699647
0	H	0.549903	0.345716	0.278425
0	H	0.424034	0.839673	0.259144
0	H	0.429387	0.634887	0.764155
0	H	0.555708	0.140851	0.783086
0	H	0.0640845	0.151378	0.822053
0	H	0.915605	0.644134	0.726232
0	H	0.915292	0.829737	0.219966
0	H	0.0634973	0.336494	0.315797
0	H	0.0621509	0.225749	0.794184
0	H	0.919263	0.718309	0.756706
0	H	0.917283	0.755407	0.248417
0	H	0.0600183	0.262289	0.285755
0	H	0.231828	0.190623	0.779965
0	H	0.749782	0.682334	0.774079
0	H	0.74749	0.790779	0.261993
0	H	0.229352	0.298441	0.267835
0	H	0.236205	0.156262	0.924196
0	H	0.742249	0.651263	0.62632
0	H	0.743263	0.824519	0.117119
0	H	0.23703	0.329548	0.415595
0	H	0.235612	0.231873	0.916747
0	H	0.744306	0.726627	0.64191
0	H	0.744	0.748946	0.126076
0	H	0.235079	0.254169	0.400047
