#******************************************
#
# CIF file created by Zeo++
# Zeo++ is an open source package to
# analyze microporous materials
#
#*******************************************

_cell_length_a		12.1984(0)
_cell_length_b		18.2995(0)
_cell_length_c		7.45557(0)
_cell_angle_alpha		90(0)
_cell_angle_beta		90(0)
_cell_angle_gamma		90(0)

_symmetry_space_group_name_H-M		'P1'
_symmetry_Int_Tables_number		1
_symmetry_cell_setting		Monoclinic

loop_
_symmetry_equiv_pos_as_xyz
'+x,+y,+z'

loop_
_atom_site_label
_atom_site_type_symbol
_atom_site_fract_x
_atom_site_fract_y
_atom_site_fract_z
0	C	0.932362	0.38099	0.205677
0	C	0.0790148	0.630708	0.710483
0	C	0.430051	0.122364	0.206177
0	C	0.581167	0.877554	0.708882
0	C	0.937472	0.295477	0.183561
0	C	0.07434	0.715827	0.67805
0	C	0.43438	0.20785	0.182753
0	C	0.576166	0.792244	0.681575
0	C	0.00922398	0.285519	0.00979896
0	C	0.0028735	0.722221	0.502983
0	C	0.506222	0.21779	0.00905346
0	C	0.504205	0.78419	0.507475
0	C	0.0909298	0.350094	0.0261102
0	C	0.920699	0.658297	0.526888
0	C	0.588574	0.153655	0.0265692
0	C	0.422548	0.848609	0.527489
0	H	0.142944	0.357205	0.907122
0	H	0.868793	0.648865	0.408697
0	H	0.640694	0.146326	0.907614
0	H	0.370713	0.857133	0.408691
0	H	0.145305	0.347259	0.142806
0	H	0.866124	0.663445	0.642899
0	H	0.642905	0.156988	0.1432
0	H	0.367868	0.844785	0.643577
0	C	0.998801	0.408914	0.0417481
0	C	0.0124179	0.5997	0.549838
0	C	0.496993	0.0944719	0.0429165
0	C	0.514794	0.907159	0.546715
0	C	0.932524	0.393809	0.867645
0	C	0.0787224	0.611077	0.373865
0	C	0.430692	0.10879	0.868447
0	C	0.580824	0.893957	0.371512
0	H	0.970981	0.421571	0.751976
0	H	0.0398292	0.581225	0.261847
0	H	0.469391	0.0807981	0.753403
0	H	0.542355	0.922984	0.25776
0	H	0.847714	0.414185	0.87371
0	H	0.163356	0.590456	0.381786
0	H	0.346036	0.0881305	0.874665
0	H	0.665607	0.91441	0.378354
0	C	0.938017	0.309521	0.847646
0	C	0.0741033	0.694923	0.344204
0	C	0.43548	0.193051	0.847043
0	C	0.575374	0.809845	0.346737
0	H	0.856467	0.284021	0.84825
0	H	0.155917	0.72006	0.342648
0	H	0.353714	0.218245	0.846798
0	H	0.657005	0.78441	0.346095
0	H	0.977161	0.293276	0.720116
0	H	0.0354474	0.708924	0.214702
0	H	0.474683	0.209048	0.719364
0	H	0.536186	0.794789	0.218408
0	C	0.938309	0.203674	0.443503
0	C	0.075798	0.806483	0.9413
0	C	0.433764	0.299094	0.443754
0	C	0.57916	0.701687	0.944371
0	C	0.820889	0.18342	0.411608
0	C	0.195122	0.822647	0.916151
0	C	0.315868	0.318286	0.412393
0	C	0.698233	0.685264	0.916465
0	H	0.765617	0.230681	0.422643
0	H	0.246228	0.773492	0.930238
0	H	0.261657	0.270537	0.425151
0	H	0.74973	0.734207	0.932394
0	H	0.79388	0.14305	0.512499
0	H	0.223141	0.862047	0.0186587
0	H	0.288398	0.358809	0.512579
0	H	0.726632	0.645037	0.0166545
0	H	0.808364	0.157964	0.279715
0	H	0.212577	0.847536	0.785008
0	H	0.302312	0.343073	0.27998
0	H	0.714993	0.661458	0.783947
0	C	0.684411	0.372086	0.117672
0	C	0.326912	0.634904	0.620908
0	C	0.182257	0.130061	0.117292
0	C	0.828056	0.872753	0.608621
0	H	0.602802	0.394349	0.151727
0	H	0.407933	0.611838	0.655904
0	H	0.100735	0.107793	0.151796
0	H	0.909685	0.89511	0.643126
0	H	0.681716	0.313046	0.144037
0	H	0.331124	0.694072	0.644604
0	H	0.179426	0.189184	0.14249
0	H	0.832896	0.813123	0.623514
0	H	0.696059	0.379857	0.972433
0	H	0.315049	0.626143	0.476173
0	H	0.193942	0.121825	0.972326
0	H	0.81358	0.884768	0.465998
0	C	0.79393	0.519756	0.199069
0	C	0.213936	0.489335	0.704041
0	C	0.291657	0.982797	0.200199
0	C	0.720777	0.0162509	0.721261
0	H	0.714432	0.545726	0.228842
0	H	0.292893	0.462905	0.735501
0	H	0.211672	0.957296	0.229171
0	H	0.800797	0.041294	0.75212
0	H	0.812096	0.528397	0.055886
0	H	0.196959	0.480458	0.560636
0	H	0.310263	0.974058	0.0572071
0	H	0.701437	0.0282392	0.579833
0	H	0.857838	0.548207	0.277038
0	H	0.149287	0.461179	0.780811
0	H	0.35479	0.953925	0.278859
0	H	0.658073	0.0434334	0.804225
0	C	0.759013	0.40474	0.497645
0	C	0.252613	0.603152	0.00231869
0	C	0.256549	0.09813	0.497886
0	C	0.759396	0.889509	0.996198
0	H	0.793192	0.448912	0.580929
0	H	0.218785	0.558437	0.0844156
0	H	0.289609	0.0536453	0.58141
0	H	0.765696	0.938385	0.0818855
0	H	0.793639	0.353057	0.547458
0	H	0.218738	0.654507	0.0552169
0	H	0.291967	0.149501	0.548179
0	H	0.697773	0.853527	0.0578136
0	H	0.669492	0.402652	0.521939
0	H	0.34239	0.604698	0.0250113
0	H	0.167015	0.101009	0.521438
0	H	0.83935	0.860672	0.00428599
0	N	0.987647	0.256747	0.335739
0	N	0.023152	0.75907	0.822333
0	N	0.484233	0.246996	0.334589
0	N	0.526633	0.75143	0.831202
0	H	0.0666534	0.270595	0.366226
0	H	0.943425	0.746302	0.851268
0	H	0.563607	0.233831	0.364575
0	H	0.446827	0.763633	0.860471
0	O	0.994851	0.175762	0.561166
0	O	0.0195322	0.834066	0.0597946
0	O	0.489682	0.327192	0.561933
0	O	0.523609	0.673086	0.0622981
0	Si	0.789417	0.42058	0.255894
0	Si	0.220612	0.588603	0.760684
0	Si	0.287443	0.082116	0.256395
0	Si	0.724909	0.915575	0.761027
0	Cl	0.0107951	0.411182	0.403684
0	Cl	0.000652027	0.60536	0.912388
0	Cl	0.508961	0.0932402	0.404685
0	Cl	0.501745	0.905301	0.90803
0	H	0.0448559	0.230785	0.995071
0	H	0.967502	0.776706	0.481606
0	H	0.541312	0.272652	0.993744
0	H	0.468572	0.729639	0.489372
0	H	0.0272914	0.465745	0.0541645
0	H	0.983482	0.543306	0.569114
0	H	0.526394	0.0379281	0.0566434
0	H	0.485919	0.963671	0.563253
0	H	0.853362	0.273255	0.158752
0	H	0.158637	0.737252	0.651657
0	H	0.350104	0.229698	0.157608
0	H	0.660308	0.770417	0.654766
