#******************************************
#
# CIF file created by Zeo++
# Zeo++ is an open source package to
# analyze microporous materials
#
#*******************************************

_cell_length_a		10.8042(0)
_cell_length_b		43.9927(0)
_cell_length_c		12.5945(0)
_cell_angle_alpha		90(0)
_cell_angle_beta		108.518(0)
_cell_angle_gamma		90(0)

_symmetry_space_group_name_H-M		'P1'
_symmetry_Int_Tables_number		1
_symmetry_cell_setting		Monoclinic

loop_
_symmetry_equiv_pos_as_xyz
'+x,+y,+z'

loop_
_atom_site_label
_atom_site_type_symbol
_atom_site_fract_x
_atom_site_fract_y
_atom_site_fract_z
0	Cl	0.0781408	0.143989	0.659035
0	Cl	0.919904	0.644183	0.819826
0	Cl	0.920602	0.855429	0.327649
0	Cl	0.0810888	0.355384	0.165989
0	Cl	0.719015	0.818505	0.662133
0	Cl	0.278839	0.318712	0.817288
0	Cl	0.280771	0.180864	0.32398
0	Cl	0.721076	0.68072	0.169212
0	Cl	0.378028	0.752001	0.141223
0	Cl	0.62338	0.252118	0.344487
0	Cl	0.621519	0.247365	0.844833
0	Cl	0.376546	0.747243	0.641342
0	Cl	0.270645	0.667622	0.728047
0	Cl	0.7275	0.167566	0.753998
0	Cl	0.729639	0.331654	0.257929
0	Cl	0.27166	0.831681	0.232035
0	Cl	0.57717	0.0785924	0.176869
0	Cl	0.421083	0.577258	0.312535
0	Cl	0.422567	0.920634	0.809544
0	Cl	0.578402	0.422152	0.673774
0	Cl	0.403342	0.841687	0.655347
0	Cl	0.594582	0.341959	0.825803
0	Cl	0.596431	0.157661	0.330757
0	Cl	0.405034	0.657387	0.159943
0	N	0.00967831	0.947891	0.858915
0	N	0.989375	0.447908	0.625337
0	N	0.990389	0.0512968	0.127504
0	N	0.0107444	0.551546	0.36077
0	H	0.0193993	0.924977	0.863304
0	H	0.981597	0.424983	0.620356
0	H	0.980499	0.0742104	0.12319
0	H	0.0199526	0.574465	0.364964
0	C	0.893081	0.757962	0.929925
0	C	0.1075	0.257973	0.553715
0	C	0.106669	0.241189	0.0562578
0	C	0.892876	0.741059	0.432413
0	N	0.818415	0.835863	0.016625
0	N	0.183558	0.336382	0.471887
0	N	0.182104	0.163435	0.969032
0	N	0.816151	0.66282	0.514488
0	H	0.767708	0.834668	0.0718578
0	H	0.236236	0.335668	0.418219
0	H	0.232832	0.164729	0.91389
0	H	0.763422	0.663801	0.568093
0	C	0.866915	0.809563	0.976324
0	C	0.133794	0.309782	0.509178
0	C	0.133261	0.189598	0.00983888
0	C	0.866611	0.689311	0.477229
0	C	0.825462	0.779382	0.973689
0	C	0.175795	0.27963	0.511516
0	C	0.174351	0.219807	0.0124303
0	C	0.824504	0.719452	0.474713
0	C	0.0648062	0.74282	0.846112
0	C	0.934767	0.242569	0.636474
0	C	0.934875	0.256297	0.139909
0	C	0.0655756	0.756478	0.350021
0	C	0.939049	0.963078	0.75794
0	C	0.0607527	0.463218	0.725789
0	C	0.0610523	0.0361694	0.228511
0	C	0.939456	0.536224	0.260327
0	C	0.963024	0.0462647	0.678219
0	C	0.0366408	0.546379	0.804891
0	C	0.0368118	0.953082	0.308538
0	C	0.963688	0.453067	0.181526
0	C	0.716233	0.771553	0.0155826
0	C	0.285516	0.271887	0.470276
0	C	0.283522	0.227709	0.970592
0	C	0.714688	0.727244	0.515856
0	C	0.859588	0.72648	0.929139
0	C	0.140657	0.226483	0.553292
0	C	0.14069	0.272648	0.0575136
0	C	0.859542	0.772546	0.432256
0	C	0.922798	0.0140409	0.675847
0	C	0.0770853	0.514154	0.808197
0	C	0.0774404	0.985278	0.311032
0	C	0.923044	0.485264	0.178203
0	C	0.968387	0.818912	0.932183
0	C	0.0297932	0.318806	0.55077
0	C	0.0320543	0.180097	0.0541102
0	C	0.970505	0.680145	0.435783
0	C	0.807956	0.918463	0.661295
0	C	0.192333	0.418698	0.821671
0	C	0.192003	0.0808817	0.325013
0	C	0.807451	0.580709	0.164407
0	N	0.887144	0.888604	0.0518418
0	N	0.115181	0.389199	0.438832
0	N	0.11421	0.110623	0.933701
0	N	0.883658	0.610016	0.548607
0	H	0.810768	0.893788	0.0790641
0	H	0.19309	0.394552	0.414136
0	H	0.190494	0.105417	0.906485
0	H	0.805368	0.604798	0.573135
0	H	0.925796	0.907007	0.025396
0	H	0.0753807	0.407375	0.4654
0	H	0.0744097	0.0922276	0.959139
0	H	0.924038	0.591751	0.523044
0	C	0.844026	0.950966	0.664272
0	C	0.156109	0.451165	0.819338
0	C	0.155979	0.0483737	0.322013
0	C	0.843916	0.548247	0.166784
0	C	0.897864	0.860607	0.00787246
0	C	0.102142	0.360881	0.479137
0	C	0.103604	0.138563	0.978013
0	C	0.896966	0.63819	0.507382
0	C	0.0772523	0.997891	0.874869
0	C	0.921437	0.497843	0.609495
0	C	0.922639	0.00130495	0.112028
0	C	0.0783765	0.501568	0.377
0	C	0.767721	0.0219363	0.482396
0	C	0.231067	0.521827	0.00304549
0	C	0.232543	0.977413	0.504273
0	C	0.768946	0.477525	0.983384
0	C	0.0289832	0.797351	0.882784
0	C	0.969226	0.297052	0.599459
0	C	0.970742	0.201711	0.10285
0	C	0.0315126	0.70192	0.387589
0	C	0.125252	0.0837198	0.670748
0	C	0.873742	0.583872	0.810583
0	C	0.874112	0.915725	0.315743
0	C	0.126768	0.415686	0.175593
0	H	0.222815	0.0892991	0.668198
0	H	0.776018	0.589456	0.81271
0	H	0.776441	0.910202	0.318182
0	H	0.224477	0.410153	0.173339
0	C	0.994013	0.766776	0.885964
0	C	0.0055608	0.266557	0.5968
0	C	0.00550317	0.232322	0.0998417
0	C	0.995119	0.732426	0.389827
0	C	0.979259	0.994386	0.766608
0	C	0.0203652	0.494492	0.717331
0	C	0.0208814	0.00486156	0.220104
0	C	0.979701	0.504938	0.26903
0	C	0.828453	0.0022013	0.580685
0	C	0.171026	0.502345	0.903686
0	C	0.171889	0.997173	0.40603
0	C	0.82909	0.49703	0.0826795
0	C	0.789411	0.971157	0.57511
0	C	0.210318	0.471303	0.908742
0	C	0.210999	0.0282038	0.411193
0	C	0.789692	0.528075	0.0775199
0	C	0.0580282	0.741399	0.733167
0	C	0.941294	0.241178	0.749384
0	C	0.941977	0.257809	0.252928
0	C	0.0586183	0.757947	0.237024
0	H	0.0018598	0.75836	0.674004
0	H	0.997283	0.258177	0.808464
0	H	0.998244	0.240881	0.312196
0	H	0.00260192	0.740952	0.177981
0	C	0.987671	0.850994	0.952924
0	C	0.00948235	0.350927	0.530184
0	C	0.0137933	0.147933	0.0332728
0	C	0.989942	0.648012	0.456334
0	C	0.123637	0.718349	0.696604
0	C	0.875518	0.218166	0.78596
0	C	0.876587	0.280909	0.289514
0	C	0.123984	0.781017	0.200273
0	H	0.119823	0.717188	0.609064
0	H	0.879471	0.216993	0.873512
0	H	0.880627	0.282131	0.377108
0	H	0.11981	0.782202	0.112659
0	C	0.842198	0.0327961	0.417127
0	C	0.156633	0.532202	0.0691194
0	C	0.157874	0.966506	0.569324
0	C	0.843165	0.467154	0.917125
0	H	0.946018	0.0274107	0.440136
0	H	0.0528761	0.526763	0.0461397
0	H	0.0540583	0.971909	0.54623
0	H	0.946885	0.472612	0.93992
0	C	0.0887313	0.0534213	0.675434
0	C	0.910682	0.553563	0.807
0	C	0.910979	0.946004	0.311191
0	C	0.0896726	0.445972	0.17932
0	H	0.158227	0.0352615	0.677068
0	H	0.841124	0.535429	0.805486
0	H	0.84164	0.964198	0.309596
0	H	0.158964	0.464163	0.180756
0	C	0.69241	0.960136	0.476453
0	C	0.305662	0.460014	0.00781447
0	C	0.308006	0.0394115	0.509482
0	C	0.694078	0.53922	0.978336
0	N	0.175376	0.961261	0.0339715
0	N	0.821319	0.461055	0.4512
0	N	0.824249	0.0379349	0.95285
0	N	0.178678	0.538469	0.534959
0	H	0.231984	0.9778	0.0815117
0	H	0.764025	0.477568	0.404156
0	H	0.7672	0.0214169	0.905594
0	H	0.236076	0.521965	0.582023
0	H	0.211851	0.939884	0.0496437
0	H	0.784532	0.439672	0.435876
0	H	0.787788	0.0593338	0.937378
0	H	0.215891	0.55984	0.549415
0	C	0.602899	0.757905	0.944112
0	C	0.398225	0.257879	0.541344
0	C	0.396823	0.241374	0.0420622
0	C	0.602091	0.741305	0.444807
0	H	0.595758	0.752515	0.857572
0	H	0.404883	0.252285	0.627585
0	H	0.404057	0.246751	0.128633
0	H	0.595467	0.746965	0.358637
0	C	0.14037	0.024752	0.922025
0	C	0.857733	0.524577	0.56166
0	C	0.859395	0.974495	0.0643717
0	C	0.141742	0.474864	0.425597
0	C	0.0821699	0.869401	0.930952
0	C	0.912756	0.36935	0.548521
0	C	0.919922	0.129131	0.0543866
0	C	0.0862849	0.629489	0.437904
0	N	0.832228	0.701027	0.92875
0	N	0.166727	0.200974	0.552443
0	N	0.166924	0.298167	0.0576709
0	N	0.833164	0.798047	0.432531
0	C	0.123876	0.807449	0.827303
0	C	0.873783	0.307252	0.654223
0	C	0.875453	0.191687	0.158031
0	C	0.126893	0.691841	0.332707
0	C	0.0972738	0.968928	0.927657
0	C	0.901049	0.468826	0.556912
0	C	0.902597	0.0302564	0.0590799
0	C	0.0989391	0.530613	0.429319
0	C	0.193835	0.696862	0.774003
0	C	0.804831	0.196767	0.708422
0	C	0.806265	0.302368	0.212056
0	C	0.194641	0.802441	0.277725
0	C	0.258369	0.807371	0.884657
0	C	0.739422	0.307412	0.596546
0	C	0.740919	0.191879	0.100937
0	C	0.261268	0.691718	0.390175
0	H	0.294599	0.799791	0.971601
0	H	0.703117	0.299875	0.509553
0	H	0.704471	0.199486	0.0140295
0	H	0.297591	0.69918	0.477265
0	C	0.749778	0.856976	0.659619
0	C	0.249204	0.3572	0.821104
0	C	0.250063	0.142391	0.326593
0	C	0.750558	0.642226	0.16515
0	N	0.16285	0.88442	0.914933
0	N	0.828564	0.384279	0.558761
0	N	0.839848	0.113684	0.0695188
0	N	0.1684	0.614309	0.424978
0	C	0.139355	0.721506	0.923319
0	C	0.859897	0.221333	0.559186
0	C	0.860372	0.277626	0.0627213
0	C	0.140107	0.777807	0.427129
0	H	0.146783	0.723229	0.0117019
0	H	0.852444	0.223006	0.470795
0	H	0.852931	0.275896	0.97434
0	H	0.147574	0.776185	0.515528
0	N	0.613471	0.950983	0.397491
0	N	0.383113	0.450802	0.0876129
0	N	0.386686	0.0485812	0.588589
0	N	0.61641	0.548098	0.898044
0	C	0.0346069	0.106533	0.668788
0	C	0.964091	0.606692	0.811748
0	C	0.964511	0.892851	0.317715
0	C	0.0365572	0.39283	0.174373
0	C	0.635046	0.0295968	0.45469
0	C	0.363916	0.529496	0.0319221
0	C	0.365164	0.969702	0.53198
0	C	0.636068	0.469884	0.954564
0	H	0.578353	0.021871	0.507437
0	H	0.421105	0.522133	0.97904
0	H	0.421917	0.97743	0.47928
0	H	0.578876	0.477276	0.00740276
0	N	0.193295	0.0468675	0.962624
0	N	0.804206	0.546507	0.519984
0	N	0.806225	0.952522	0.0227558
0	N	0.195012	0.453003	0.46822
0	C	0.507443	0.759354	0.0923849
0	C	0.494141	0.259587	0.393425
0	C	0.492147	0.23998	0.893683
0	C	0.505848	0.739727	0.592556
0	C	0.724084	0.779027	0.126089
0	C	0.278329	0.279702	0.360221
0	C	0.27559	0.220277	0.860048
0	C	0.721632	0.719535	0.625967
0	H	0.813002	0.789208	0.182507
0	H	0.189944	0.290214	0.304319
0	H	0.186676	0.210094	0.803645
0	H	0.809949	0.709103	0.682276
0	C	0.713322	0.876246	0.732813
0	C	0.285798	0.376626	0.748433
0	C	0.286477	0.123112	0.253411
0	C	0.714	0.622781	0.237782
0	H	0.661609	0.867302	0.787827
0	H	0.337141	0.367783	0.692983
0	H	0.337944	0.132068	0.198239
0	H	0.662758	0.63162	0.293341
0	C	0.783762	0.0507176	0.322977
0	C	0.214945	0.549682	0.164588
0	C	0.216121	0.948522	0.663339
0	C	0.78473	0.449679	0.82167
0	H	0.840921	0.0594681	0.272249
0	H	0.157686	0.55803	0.215829
0	H	0.158813	0.939736	0.713873
0	H	0.841871	0.441341	0.770309
0	C	0.874645	0.0696385	0.678931
0	C	0.124621	0.569747	0.803132
0	C	0.124844	0.929652	0.307601
0	C	0.875779	0.429679	0.183144
0	H	0.777502	0.0641291	0.682359
0	H	0.221708	0.564254	0.799566
0	H	0.221991	0.935122	0.304101
0	H	0.778625	0.435155	0.1866
0	C	0.743151	0.907172	0.733694
0	C	0.256535	0.407562	0.748602
0	C	0.256788	0.0921811	0.252619
0	C	0.743252	0.591844	0.237504
0	H	0.715533	0.922484	0.790821
0	H	0.283948	0.422996	0.691685
0	H	0.284435	0.0768841	0.195488
0	H	0.715838	0.576422	0.294438
0	C	0.909941	0.100014	0.673539
0	C	0.0888261	0.600139	0.807232
0	C	0.0892251	0.899297	0.312898
0	C	0.911765	0.399308	0.178922
0	H	0.840878	0.118262	0.672302
0	H	0.15756	0.618385	0.807517
0	H	0.158076	0.881008	0.314008
0	H	0.843118	0.381041	0.178534
0	C	0.203844	0.69817	0.887277
0	C	0.794772	0.198119	0.595167
0	C	0.796024	0.300997	0.0987404
0	C	0.204854	0.801076	0.39101
0	H	0.260507	0.681291	0.946579
0	H	0.737472	0.181364	0.535773
0	H	0.739274	0.317855	0.039384
0	H	0.262124	0.817863	0.450333
0	C	0.841249	0.898764	0.586828
0	C	0.158926	0.398859	0.895649
0	C	0.158646	0.100592	0.399419
0	C	0.840571	0.600574	0.0903322
0	H	0.891239	0.907573	0.530327
0	H	0.109457	0.407557	0.95269
0	H	0.108648	0.0918051	0.455936
0	H	0.889839	0.5919	0.0331163
0	C	0.618687	0.773294	0.164592
0	C	0.383637	0.273912	0.321707
0	C	0.380905	0.226046	0.821479
0	C	0.61626	0.725394	0.664348
0	H	0.6229	0.779909	0.249307
0	H	0.37998	0.280779	0.237393
0	H	0.376615	0.219472	0.73671
0	H	0.619711	0.718578	0.748657
0	C	0.345947	0.817373	0.830834
0	C	0.651769	0.317616	0.650025
0	C	0.653441	0.181966	0.155036
0	C	0.348593	0.681592	0.336246
0	H	0.450746	0.817044	0.874219
0	H	0.547081	0.31744	0.606316
0	H	0.548586	0.182382	0.111908
0	H	0.45335	0.681733	0.379766
0	C	0.497915	0.751458	0.982688
0	C	0.503134	0.251381	0.502713
0	C	0.501698	0.247862	0.00340295
0	C	0.49711	0.747874	0.483284
0	H	0.410081	0.740544	0.927495
0	H	0.590522	0.240208	0.557522
0	H	0.589503	0.2588	0.0585762
0	H	0.409822	0.759051	0.428367
0	C	0.811826	0.867835	0.585291
0	C	0.187581	0.367914	0.895954
0	C	0.187969	0.131528	0.400873
0	C	0.811955	0.631523	0.0901261
0	H	0.836532	0.85249	0.526426
0	H	0.16263	0.352442	0.954287
0	H	0.163083	0.146885	0.459615
0	H	0.836852	0.647013	0.0317893
0	C	0.57561	0.0473017	0.360269
0	C	0.423263	0.5467	0.127747
0	C	0.424417	0.951937	0.626283
0	C	0.576562	0.452693	0.858738
0	H	0.472456	0.0531855	0.338013
0	H	0.526589	0.55249	0.150981
0	H	0.527534	0.94602	0.648559
0	H	0.473187	0.446939	0.835535
0	C	0.650825	0.0574141	0.29521
0	C	0.347858	0.556444	0.193156
0	C	0.349062	0.941815	0.691205
0	C	0.65181	0.442934	0.793217
0	C	0.0767279	0.817572	0.715767
0	C	0.920823	0.317523	0.765621
0	C	0.922742	0.18162	0.269636
0	C	0.0793504	0.681709	0.221177
0	H	0.971932	0.81772	0.671263
0	H	0.0255462	0.317623	0.810384
0	H	0.0275951	0.181486	0.313887
0	H	0.974484	0.681622	0.176968
0	C	0.296569	0.827835	0.720743
0	C	0.700957	0.328065	0.760105
0	C	0.702987	0.171487	0.265089
0	C	0.29896	0.671234	0.226057
0	C	0.163136	0.827844	0.661576
0	C	0.834364	0.327988	0.819397
0	C	0.836489	0.171435	0.324083
0	C	0.16547	0.671318	0.166974
0	H	0.126716	0.835955	0.575294
0	H	0.870476	0.336178	0.905529
0	H	0.87308	0.163362	0.410404
0	H	0.128953	0.663163	0.0808027
