#******************************************
#
# CIF file created by Zeo++
# Zeo++ is an open source package to
# analyze microporous materials
#
#*******************************************

_cell_length_a		4.09424(0)
_cell_length_b		16.9893(0)
_cell_length_c		13.9889(0)
_cell_angle_alpha		81.5648(0)
_cell_angle_beta		87.0649(0)
_cell_angle_gamma		81.275(0)

_symmetry_space_group_name_H-M		'P1'
_symmetry_Int_Tables_number		1
_symmetry_cell_setting		Triclinic

loop_
_symmetry_equiv_pos_as_xyz
'+x,+y,+z'

loop_
_atom_site_label
_atom_site_type_symbol
_atom_site_fract_x
_atom_site_fract_y
_atom_site_fract_z
0	C	0.189325	0.787651	0.851347
0	C	0.809261	0.214502	0.150514
0	H	0.941106	0.788577	0.885088
0	H	0.057455	0.213582	0.11676
0	H	0.234671	0.849964	0.832954
0	H	0.763936	0.152188	0.168898
0	H	0.363146	0.756901	0.90632
0	H	0.635441	0.245243	0.0955385
0	C	0.220034	0.745067	0.762065
0	C	0.778558	0.257085	0.239802
0	H	0.0474249	0.778479	0.706495
0	H	0.951172	0.223665	0.295367
0	H	0.473827	0.746614	0.7289
0	H	0.52476	0.255532	0.272961
0	C	0.156538	0.658045	0.786535
0	C	0.842062	0.344108	0.215325
0	H	0.914007	0.656103	0.82579
0	H	0.0845689	0.34605	0.17606
0	H	0.341508	0.623222	0.837112
0	H	0.657071	0.37892	0.164749
0	C	0.157604	0.61821	0.69526
0	C	0.840998	0.383947	0.306608
0	H	0.403197	0.619294	0.656901
0	H	0.59538	0.382864	0.344953
0	H	0.978889	0.654454	0.643862
0	H	0.0196807	0.34769	0.358005
0	C	0.087117	0.531893	0.71909
0	C	0.911493	0.470266	0.282774
0	H	0.283203	0.493937	0.763512
0	H	0.715402	0.508204	0.238338
0	H	0.855181	0.529745	0.763915
0	H	0.143411	0.472405	0.237942
0	C	0.0516388	0.496147	0.626468
0	C	0.946944	0.506043	0.375385
0	H	0.857376	0.534001	0.581392
0	H	0.141204	0.468169	0.420458
0	H	0.284507	0.498779	0.581525
0	H	0.714073	0.503388	0.420323
0	C	0.97827	0.412536	0.649464
0	C	0.0202818	0.589669	0.352408
0	H	0.767846	0.403869	0.700951
0	H	0.230687	0.598327	0.300913
0	C	0.127745	0.351511	0.605385
0	C	0.870937	0.650672	0.396555
0	H	0.33899	0.357783	0.554104
0	H	0.659487	0.644378	0.447745
0	C	0.0443385	0.269991	0.629767
0	C	0.955572	0.732073	0.372548
0	N	0.859404	0.250451	0.707492
0	N	0.138596	0.751756	0.294417
0	C	0.781919	0.171671	0.728958
0	C	0.216447	0.830483	0.273067
0	C	0.906577	0.110087	0.671331
0	C	0.0925307	0.891927	0.331011
0	N	0.0947455	0.133167	0.587668
0	N	0.906938	0.868751	0.415041
0	C	0.179839	0.211793	0.568039
0	C	0.822173	0.790046	0.435187
0	C	0.378828	0.215817	0.482716
0	C	0.62136	0.786233	0.519801
0	H	0.481281	0.268128	0.449729
0	H	0.517168	0.733915	0.552418
0	C	0.418312	0.13923	0.453293
0	C	0.579503	0.862956	0.548941
0	H	0.561311	0.121442	0.392106
0	H	0.436242	0.880941	0.609909
0	C	0.247963	0.0878154	0.519407
0	C	0.750871	0.914265	0.482923
0	H	0.223115	0.0258903	0.518819
0	H	0.774427	0.976406	0.482934
0	C	0.584888	0.152269	0.811665
0	C	0.413342	0.849909	0.19021
0	H	0.486756	0.199946	0.854222
0	H	0.511574	0.802213	0.147687
0	C	0.510751	0.0740797	0.834237
0	C	0.487717	0.928056	0.167628
0	C	0.6375	0.0128657	0.777141
0	C	0.360802	0.989226	0.224785
0	H	0.57294	0.952829	0.796695
0	H	0.425413	0.0492917	0.205258
0	C	0.829075	0.0314053	0.695346
0	C	0.169305	0.970599	0.306592
0	H	0.929177	0.985508	0.650306
0	H	0.0693879	0.0166049	0.351543
0	O	0.312425	0.0488021	0.911466
0	O	0.686122	0.953342	0.0904135
0	C	0.20902	0.104772	0.980771
0	C	0.789553	0.89738	0.0210983
0	H	0.432665	0.119075	0.0111901
0	H	0.565921	0.883079	0.990678
0	H	0.072431	0.0688749	0.0362306
0	H	0.926138	0.933272	0.965623
0	H	0.0538291	0.158433	0.946001
0	H	0.944744	0.843715	0.0558602
