#******************************************
#
# CIF file created by Zeo++
# Zeo++ is an open source package to
# analyze microporous materials
#
#*******************************************

_cell_length_a		9.44049(0)
_cell_length_b		19.1057(0)
_cell_length_c		42.495(0)
_cell_angle_alpha		90(0)
_cell_angle_beta		90(0)
_cell_angle_gamma		90(0)

_symmetry_space_group_name_H-M		'P1'
_symmetry_Int_Tables_number		1
_symmetry_cell_setting		Monoclinic

loop_
_symmetry_equiv_pos_as_xyz
'+x,+y,+z'

loop_
_atom_site_label
_atom_site_type_symbol
_atom_site_fract_x
_atom_site_fract_y
_atom_site_fract_z
0	C	0.0815935	0.0546848	0.384555
0	C	0.962643	0.959294	0.888823
0	C	0.968399	0.05004	0.114659
0	C	0.085984	0.953564	0.618686
0	C	0.56471	0.532527	0.384407
0	C	0.467739	0.462407	0.890166
0	C	0.467779	0.546688	0.113056
0	C	0.564383	0.476679	0.619065
0	O	0.170143	0.0978431	0.391072
0	O	0.874726	0.917619	0.897237
0	O	0.880744	0.0918669	0.106247
0	O	0.174865	0.910547	0.612218
0	O	0.663059	0.571083	0.389131
0	O	0.379268	0.421378	0.898832
0	O	0.37929	0.587711	0.10439
0	O	0.662844	0.438162	0.614396
0	C	0.670001	0.709385	0.443424
0	C	0.375105	0.304124	0.946544
0	C	0.377192	0.70463	0.0567172
0	C	0.673422	0.298806	0.560062
0	C	0.135772	0.197527	0.448092
0	C	0.895621	0.805933	0.943456
0	C	0.895519	0.20317	0.0598335
0	C	0.134957	0.811395	0.555254
0	H	0.614789	0.673284	0.427026
0	H	0.436609	0.339491	0.930676
0	H	0.438817	0.669182	0.0725212
0	H	0.618363	0.33486	0.57651
0	H	0.0766818	0.162511	0.431801
0	H	0.957115	0.841293	0.927663
0	H	0.957228	0.167859	0.0756097
0	H	0.0756788	0.846312	0.571552
0	H	0.585911	0.7387	0.455879
0	H	0.454775	0.273925	0.959918
0	H	0.456764	0.734817	0.0433075
0	H	0.589179	0.269516	0.547643
0	H	0.0555231	0.227598	0.461369
0	H	0.974369	0.773594	0.955976
0	H	0.974091	0.235563	0.0472916
0	H	0.0548466	0.781382	0.54191
0	C	0.756692	0.666785	0.467004
0	C	0.286599	0.348623	0.96907
0	C	0.288307	0.660252	0.0342204
0	C	0.759831	0.341439	0.536447
0	C	0.223467	0.152682	0.470684
0	C	0.811716	0.851832	0.967308
0	C	0.811715	0.157177	0.0360067
0	C	0.222804	0.856352	0.532738
0	H	0.820552	0.625828	0.455062
0	H	0.226628	0.389714	0.956195
0	H	0.228468	0.619127	0.0471037
0	H	0.823837	0.382385	0.548364
0	H	0.285576	0.112323	0.457837
0	H	0.756331	0.894306	0.953829
0	H	0.756323	0.114724	0.0494919
0	H	0.284692	0.896699	0.545653
0	C	0.848306	0.71245	0.4887
0	C	0.189553	0.304226	0.990144
0	C	0.191036	0.704745	0.0132388
0	C	0.851238	0.295827	0.514692
0	C	0.31798	0.196781	0.492409
0	C	0.715686	0.809181	0.986529
0	C	0.71568	0.199762	0.0167562
0	C	0.31759	0.81239	0.511019
0	H	0.77775	0.742434	0.504627
0	H	0.255782	0.273871	0.00681749
0	H	0.257065	0.735062	0.996513
0	H	0.780548	0.265789	0.498818
0	H	0.250006	0.227085	0.508787
0	H	0.725655	0.808481	0.0117154
0	H	0.725615	0.200378	0.99157
0	H	0.249827	0.782158	0.494576
0	H	0.914957	0.67927	0.503972
0	H	0.121648	0.338247	0.00479155
0	H	0.1228	0.670784	0.99864
0	H	0.917624	0.329013	0.499363
0	H	0.384277	0.162732	0.507448
0	H	0.600588	0.90949	0.0402738
0	H	0.5967	0.0983683	0.963569
0	H	0.384064	0.846513	0.496067
0	C	0.941035	0.763326	0.469899
0	C	0.0973331	0.254597	0.970635
0	C	0.0992815	0.754429	0.032834
0	C	0.944348	0.245038	0.533444
0	C	0.412021	0.246743	0.473431
0	C	0.61816	0.762027	0.970361
0	C	0.618105	0.246965	0.0328948
0	C	0.411443	0.762352	0.530002
0	H	0.0230418	0.733963	0.456798
0	H	0.0182779	0.285302	0.957152
0	H	0.0203361	0.723764	0.0463664
0	H	0.026448	0.274442	0.54651
0	H	0.491228	0.216239	0.460061
0	H	0.539279	0.792307	0.956314
0	H	0.539111	0.216711	0.0469237
0	H	0.49046	0.792824	0.543448
0	H	0.999149	0.797733	0.486643
0	H	0.0354106	0.2209	0.987006
0	H	0.0371979	0.788176	0.0165182
0	H	0.00232129	0.210652	0.516657
0	H	0.473282	0.280026	0.49002
0	H	0.556399	0.729648	0.987216
0	H	0.556414	0.279303	0.0160135
0	H	0.47292	0.729149	0.513422
0	C	0.853253	0.809137	0.446867
0	C	0.186007	0.208339	0.948024
0	C	0.188499	0.800573	0.055393
0	C	0.856962	0.199151	0.556503
0	C	0.325678	0.294016	0.450752
0	C	0.701518	0.712744	0.946888
0	C	0.701385	0.296278	0.0563707
0	C	0.324974	0.714964	0.552607
0	C	0.766088	0.759521	0.424712
0	C	0.278932	0.256349	0.926796
0	C	0.28139	0.752411	0.0765539
0	C	0.769671	0.248621	0.578701
0	C	0.233067	0.246012	0.429012
0	C	0.789889	0.761446	0.924548
0	C	0.78965	0.247584	0.0787342
0	C	0.232046	0.76283	0.574343
0	H	0.845258	0.726245	0.411505
0	H	0.206207	0.291069	0.912713
0	H	0.208694	0.717702	0.0906412
0	H	0.848883	0.281838	0.591948
0	H	0.307927	0.21111	0.415373
0	H	0.71297	0.79947	0.912781
0	H	0.712559	0.209564	0.0904741
0	H	0.306622	0.797676	0.588091
0	C	0.685064	0.800364	0.40122
0	C	0.369326	0.213724	0.903726
0	C	0.372228	0.794849	0.0996127
0	C	0.68866	0.207618	0.602134
0	C	0.15319	0.287162	0.405535
0	C	0.861226	0.721095	0.900059
0	C	0.860897	0.287871	0.103257
0	C	0.151904	0.721398	0.597675
0	H	0.510398	0.909668	0.439085
0	H	0.45856	0.188434	0.916348
0	H	0.461381	0.820124	0.086959
0	H	0.487511	0.104817	0.564997
0	H	0.947132	0.428424	0.439594
0	H	0.092116	0.582275	0.940652
0	H	0.0918455	0.426361	0.0624796
0	H	0.94532	0.579803	0.563871
0	H	0.580991	0.783467	0.394482
0	H	0.420053	0.250329	0.88656
0	H	0.42301	0.758101	0.116706
0	H	0.584448	0.224362	0.608839
0	H	0.0485578	0.270452	0.398858
0	H	0.961895	0.739066	0.890438
0	H	0.961424	0.269825	0.11292
0	H	0.0467989	0.7377	0.604169
0	C	0.745275	0.861999	0.387211
0	C	0.286749	0.157791	0.885638
0	C	0.290041	0.850754	0.117802
0	C	0.749099	0.146	0.616101
0	C	0.216502	0.347684	0.391033
0	C	0.799914	0.657064	0.887159
0	C	0.799603	0.351926	0.116143
0	C	0.215586	0.661066	0.61225
0	H	0.662031	0.90486	0.384709
0	H	0.363065	0.114527	0.878334
0	H	0.366539	0.893828	0.125191
0	H	0.666025	0.103085	0.618605
0	H	0.138756	0.392939	0.390964
0	H	0.883942	0.613061	0.885517
0	H	0.883682	0.395886	0.11782
0	H	0.138208	0.615687	0.612411
0	H	0.763699	0.850439	0.361084
0	H	0.258242	0.17869	0.861295
0	H	0.26126	0.829657	0.142093
0	H	0.767755	0.157605	0.64222
0	H	0.228869	0.336188	0.364983
0	H	0.786632	0.664155	0.860437
0	H	0.78606	0.344796	0.142858
0	H	0.228067	0.672893	0.638277
0	C	0.875408	0.889578	0.399677
0	C	0.159406	0.129331	0.900113
0	C	0.162923	0.879536	0.103353
0	C	0.879356	0.1186	0.60362
0	C	0.351932	0.37152	0.402676
0	C	0.669366	0.630626	0.900724
0	C	0.669179	0.378402	0.102525
0	C	0.351287	0.637476	0.600682
0	C	0.955609	0.852215	0.425145
0	C	0.0825397	0.167267	0.925567
0	C	0.085557	0.841822	0.0778999
0	C	0.959514	0.156113	0.578194
0	C	0.42974	0.335173	0.428655
0	C	0.595195	0.670023	0.926283
0	C	0.595052	0.339038	0.0769563
0	C	0.429074	0.673856	0.574711
0	H	0.024579	0.813462	0.412278
0	H	0.0191655	0.208702	0.912082
0	H	0.0218603	0.800534	0.0913852
0	H	0.028396	0.194867	0.591078
0	H	0.498357	0.294797	0.416629
0	H	0.527525	0.709453	0.912695
0	H	0.527255	0.299628	0.0905247
0	H	0.497703	0.714244	0.586727
0	C	0.0563809	0.899023	0.444721
0	C	0.97424	0.123832	0.944686
0	C	0.977539	0.885507	0.0588104
0	C	0.0603102	0.109384	0.558597
0	C	0.530112	0.383266	0.447768
0	C	0.49191	0.626308	0.946614
0	C	0.491787	0.382743	0.0566139
0	C	0.529412	0.625735	0.555609
0	H	0.136185	0.865311	0.456402
0	H	0.891604	0.159635	0.953931
0	H	0.894385	0.849906	0.0496419
0	H	0.139949	0.143168	0.5469
0	H	0.60756	0.350522	0.460732
0	H	0.41213	0.661696	0.957325
0	H	0.412002	0.347341	0.0459135
0	H	0.60675	0.658438	0.542589
0	H	0.994609	0.923443	0.464138
0	H	0.0284023	0.102601	0.965973
0	H	0.0316322	0.906521	0.0374735
0	H	0.998465	0.0849083	0.539206
0	H	0.467452	0.409773	0.466509
0	H	0.55099	0.604281	0.967065
0	H	0.550877	0.404745	0.0361585
0	H	0.466684	0.599151	0.536901
0	C	0.132716	0.956652	0.42604
0	C	0.903338	0.0633533	0.927015
0	C	0.907579	0.946236	0.0764917
0	C	0.136882	0.0517639	0.577239
0	C	0.609161	0.439092	0.4285
0	C	0.416392	0.566586	0.929247
0	C	0.416297	0.442485	0.0739795
0	C	0.608621	0.569993	0.574894
0	H	0.212922	0.933592	0.410003
0	H	0.824643	0.0829521	0.909569
0	H	0.82869	0.92689	0.0939536
0	H	0.21701	0.074848	0.593291
0	H	0.691658	0.414869	0.413615
0	H	0.335472	0.587018	0.912605
0	H	0.33535	0.422063	0.0906186
0	H	0.691138	0.594301	0.589748
0	H	0.19172	0.991537	0.442123
0	H	0.841043	0.0306073	0.943431
0	H	0.845638	0.979179	0.0600907
0	H	0.196	0.0169963	0.561129
0	H	0.665818	0.475274	0.44451
0	H	0.356607	0.533743	0.946094
0	H	0.356502	0.475313	0.0571288
0	H	0.665231	0.533778	0.558892
0	C	0.918234	0.0362302	0.428698
0	C	0.117881	0.984048	0.933768
0	C	0.123122	0.0248738	0.069686
0	C	0.922713	0.971989	0.574528
0	C	0.399303	0.521484	0.42859
0	C	0.629573	0.486104	0.933987
0	C	0.629534	0.522906	0.0692267
0	C	0.39894	0.487507	0.574884
0	H	0.850318	0.072965	0.415899
0	H	0.189292	0.946472	0.921958
0	H	0.194703	0.0624266	0.0814679
0	H	0.854989	0.935109	0.587298
0	H	0.336433	0.559549	0.415004
0	H	0.697363	0.447591	0.921682
0	H	0.697411	0.561412	0.0815208
0	H	0.336391	0.44935	0.588492
0	H	0.973957	0.0657569	0.447196
0	H	0.0587324	0.953096	0.951302
0	H	0.0641314	0.0558013	0.0521195
0	H	0.978502	0.942601	0.555987
0	H	0.455944	0.551963	0.446595
0	H	0.572068	0.455921	0.951999
0	H	0.572083	0.553074	0.0512004
0	H	0.455556	0.457117	0.55685
0	H	0.848254	0.998362	0.440393
0	H	0.184022	0.0214064	0.946484
0	H	0.189045	0.987354	0.0570188
0	H	0.85251	0.00979148	0.562861
0	H	0.324649	0.486615	0.440622
0	H	0.699225	0.522952	0.946038
0	H	0.699131	0.486017	0.057186
0	H	0.324007	0.522304	0.562892
0	C	0.0234766	0.998277	0.407069
0	C	0.0163386	0.0193863	0.910606
0	C	0.0212942	0.989835	0.0928718
0	C	0.0277978	0.00998006	0.596176
0	C	0.502974	0.479733	0.4082
0	C	0.525217	0.522128	0.911659
0	C	0.525146	0.48694	0.0915638
0	C	0.502589	0.529368	0.595238
0	C	0.953032	0.946567	0.383451
0	C	0.0919538	0.0680914	0.886479
0	C	0.0961979	0.940922	0.11702
0	C	0.957089	0.0616034	0.619799
0	C	0.432113	0.426066	0.385478
0	C	0.597162	0.570748	0.886885
0	C	0.597042	0.438319	0.116342
0	C	0.431679	0.583087	0.617932
0	H	0.0411062	0.918645	0.370162
0	H	0.00245897	0.0938631	0.871098
0	H	0.00625988	0.915326	0.132345
0	H	0.0450294	0.0895008	0.633143
0	H	0.519919	0.396974	0.373002
0	H	0.50646	0.596456	0.872393
0	H	0.506309	0.412644	0.130838
0	H	0.519443	0.612249	0.630383
0	C	0.881929	0.996077	0.359587
0	C	0.164759	0.0162968	0.864121
0	C	0.169237	0.992492	0.139465
0	C	0.885725	0.0119843	0.64356
0	C	0.360515	0.473486	0.360892
0	C	0.668015	0.518951	0.864274
0	C	0.668029	0.490108	0.138937
0	C	0.360092	0.535722	0.642539
0	H	0.787283	0.0212361	0.369882
0	H	0.257499	0.991278	0.875466
0	H	0.262259	0.0173973	0.128183
0	H	0.791289	0.986834	0.633167
0	H	0.265819	0.499317	0.371167
0	H	0.762135	0.494227	0.875212
0	H	0.762143	0.514787	0.127975
0	H	0.265406	0.509865	0.632275
0	H	0.843717	0.968473	0.33847
0	H	0.207191	0.0404383	0.842378
0	H	0.211228	0.968171	0.161209
0	H	0.847166	0.0394729	0.664676
0	H	0.320335	0.445027	0.340345
0	H	0.707723	0.542812	0.842288
0	H	0.707795	0.466248	0.160916
0	H	0.319928	0.56425	0.66307
0	C	2.50199e-05	0.0504203	0.352634
0	C	0.045617	0.962035	0.857596
0	C	0.050404	0.0469433	0.145969
0	C	0.00377614	0.957669	0.650543
0	C	0.475372	0.528696	0.353326
0	C	0.548997	0.464249	0.85861
0	C	0.549093	0.544847	0.144606
0	C	0.474909	0.480528	0.650133
0	C	0.102604	0.0254943	0.32566
0	C	0.941833	0.986298	0.83045
0	C	0.945852	0.0226983	0.172979
0	C	0.105945	0.982574	0.677596
0	C	0.57198	0.506978	0.324445
0	C	0.444077	0.486658	0.831333
0	C	0.444142	0.522478	0.17189
0	C	0.571408	0.50225	0.679032
0	N	0.151901	0.0931858	0.312422
0	N	0.899527	0.918479	0.816622
0	N	0.90346	0.0904888	0.186814
0	N	0.155116	0.914843	0.690801
0	N	0.614683	0.575014	0.312018
0	N	0.401849	0.417864	0.818756
0	N	0.402053	0.591297	0.184467
0	N	0.614075	0.434239	0.691464
0	C	0.230434	0.0954801	0.282507
0	C	0.825054	0.915359	0.786106
0	C	0.828418	0.093559	0.217261
0	C	0.233412	0.912472	0.720744
0	C	0.694756	0.58449	0.282607
0	C	0.322978	0.411242	0.788948
0	C	0.3233	0.597961	0.214289
0	C	0.69427	0.424736	0.720853
0	H	0.183721	0.0664592	0.262363
0	H	0.871475	0.946809	0.766495
0	H	0.874586	0.0621755	0.236922
0	H	0.186474	0.941424	0.740878
0	H	0.655857	0.555229	0.261815
0	H	0.365849	0.440904	0.768629
0	H	0.366201	0.568274	0.234598
0	H	0.6553	0.453884	0.741673
0	H	0.341366	0.077471	0.286371
0	H	0.711754	0.92987	0.789293
0	H	0.71523	0.0788924	0.213998
0	H	0.344343	0.930512	0.716928
0	H	0.808802	0.572177	0.286606
0	H	0.209928	0.425932	0.792479
0	H	0.210206	0.583325	0.210784
0	H	0.808242	0.437189	0.716849
0	C	0.0796759	0.211146	0.302163
0	C	0.988064	0.802882	0.805027
0	C	0.991612	0.206065	0.198484
0	C	0.0829809	0.796828	0.700914
0	C	0.538581	0.694457	0.306544
0	C	0.489642	0.301458	0.808544
0	C	0.490244	0.707649	0.19469
0	C	0.538444	0.314749	0.696832
0	H	0.122702	0.238908	0.322769
0	H	0.95045	0.770612	0.824691
0	H	0.954569	0.238312	0.178756
0	H	0.12633	0.769231	0.680295
0	H	0.586342	0.719993	0.327232
0	H	0.457113	0.269834	0.828834
0	H	0.457775	0.739297	0.174403
0	H	0.586228	0.289356	0.676113
0	H	0.00217973	0.244551	0.290053
0	H	0.0751275	0.773634	0.793207
0	H	0.0782499	0.235353	0.210427
0	H	0.00541885	0.76328	0.712923
0	H	0.450829	0.730403	0.298069
0	H	0.575127	0.271864	0.796188
0	H	0.57583	0.737165	0.207047
0	H	0.450815	0.278615	0.705264
0	C	0.0218789	0.138725	0.310265
0	C	0.0346833	0.875885	0.81468
0	C	0.0386075	0.133066	0.188902
0	C	0.0251101	0.86926	0.692863
0	C	0.484083	0.621276	0.312698
0	C	0.536841	0.375017	0.816942
0	C	0.537168	0.634058	0.186279
0	C	0.483623	0.387896	0.690747
0	H	0.947282	0.120784	0.291209
0	H	0.110388	0.897334	0.796456
0	H	0.113926	0.11164	0.207201
0	H	0.950374	0.887081	0.711919
0	H	0.406516	0.606347	0.293729
0	H	0.61119	0.395081	0.798181
0	H	0.611469	0.613912	0.205036
0	H	0.406005	0.402701	0.709723
0	C	0.952809	0.126393	0.342978
0	C	0.0981872	0.887242	0.848012
0	C	0.102797	0.121706	0.155641
0	C	0.956166	0.881729	0.660143
0	C	0.420943	0.604243	0.345493
0	C	0.601922	0.388889	0.849923
0	C	0.602221	0.620172	0.153297
0	C	0.420479	0.404982	0.657955
0	H	0.00345696	0.163415	0.360261
0	H	0.0496852	0.848043	0.864435
0	H	0.0545928	0.160959	0.139189
0	H	0.00654028	0.844685	0.642838
0	H	0.469291	0.64169	0.36307
0	H	0.5543	0.350746	0.866998
0	H	0.554771	0.658329	0.13621
0	H	0.468839	0.367548	0.640373
0	C	0.795382	0.138055	0.342778
0	C	0.256406	0.879333	0.849191
0	C	0.261002	0.129488	0.154505
0	C	0.798614	0.870337	0.660347
0	C	0.263032	0.613599	0.346504
0	C	0.760106	0.381051	0.850945
0	C	0.760443	0.627883	0.1523
0	C	0.262565	0.39563	0.656936
0	C	0.705802	0.104561	0.321245
0	C	0.344959	0.904011	0.825095
0	C	0.349345	0.105061	0.178687
0	C	0.709243	0.904082	0.681854
0	C	0.172716	0.58979	0.322661
0	C	0.847824	0.403188	0.826214
0	C	0.847941	0.605873	0.177097
0	C	0.172157	0.419497	0.680752
0	H	0.753027	0.0697349	0.303372
0	H	0.297115	0.930973	0.804788
0	H	0.301321	0.0783933	0.199046
0	H	0.756719	0.938916	0.699702
0	H	0.217629	0.561834	0.302548
0	H	0.799417	0.427745	0.805426
0	H	0.799305	0.581514	0.197907
0	H	0.216989	0.447548	0.70085
0	C	0.558921	0.113006	0.322905
0	C	0.491439	0.894162	0.82659
0	C	0.49584	0.114773	0.177171
0	C	0.562296	0.895891	0.680216
0	C	0.0271561	0.602868	0.323928
0	C	0.994092	0.39281	0.827592
0	C	0.99424	0.616129	0.175754
0	C	0.0266169	0.406384	0.67947
0	H	0.489641	0.0845378	0.306572
0	H	0.559743	0.913818	0.807627
0	H	0.564054	0.0953153	0.196197
0	H	0.493235	0.924563	0.696524
0	H	0.95839	0.585689	0.304716
0	H	0.0616669	0.409719	0.807941
0	H	0.0616314	0.599364	0.19546
0	H	0.957762	0.423614	0.698658
0	C	0.498127	0.154593	0.346399
0	C	0.552704	0.859107	0.852057
0	C	0.557328	0.149322	0.151588
0	C	0.501181	0.854267	0.656781
0	C	0.969069	0.640719	0.348975
0	C	0.0561547	0.359707	0.853492
0	C	0.0566082	0.648897	0.149801
0	C	0.968642	0.368462	0.654434
0	H	0.382274	0.159099	0.34795
0	H	0.667527	0.851214	0.852546
0	H	0.672193	0.157096	0.151093
0	H	0.385295	0.849902	0.655246
0	H	0.855275	0.651895	0.349458
0	H	0.170745	0.351042	0.853732
0	H	0.17124	0.657457	0.14958
0	H	0.854856	0.357272	0.653941
0	C	0.584346	0.189537	0.368066
0	C	0.467946	0.835096	0.876824
0	C	0.472779	0.172922	0.12671
0	C	0.587135	0.819065	0.635154
0	C	0.0557913	0.664717	0.373333
0	C	0.972277	0.338325	0.878867
0	C	0.972987	0.670063	0.124353
0	C	0.0554324	0.344427	0.630098
0	H	0.536262	0.22166	0.386383
0	H	0.514866	0.809032	0.896885
0	H	0.519941	0.198402	0.106521
0	H	0.538857	0.786894	0.616881
0	H	0.010051	0.694343	0.392781
0	H	0.0197721	0.313926	0.899306
0	H	0.020636	0.694135	0.103858
0	H	0.0096913	0.314747	0.610658
0	C	0.731227	0.179878	0.366426
0	C	0.321603	0.845893	0.874949
0	C	0.326388	0.162327	0.128617
0	C	0.734082	0.828535	0.636749
0	C	0.201241	0.651112	0.371719
0	C	0.826124	0.349729	0.877115
0	C	0.826754	0.658876	0.126093
0	C	0.200868	0.358076	0.631721
0	C	0.774794	0.240214	0.415779
0	C	0.253869	0.75999	0.913378
0	C	0.257059	0.248252	0.0903785
0	C	0.776541	0.768261	0.587351
0	C	0.27579	0.737232	0.4098
0	C	0.750571	0.264864	0.915117
0	C	0.751414	0.743934	0.0881902
0	C	0.275576	0.272093	0.593578
0	H	0.873129	0.246278	0.429498
0	H	0.156453	0.750466	0.926667
0	H	0.159373	0.257458	0.0771511
0	H	0.874773	0.76192	0.57362
0	H	0.376342	0.744466	0.42238
0	H	0.651789	0.257611	0.92818
0	H	0.652539	0.751345	0.0751815
0	H	0.376102	0.264956	0.580984
0	H	0.70248	0.204048	0.427645
0	H	0.345544	0.761564	0.929071
0	H	0.348763	0.247584	0.0746765
0	H	0.704758	0.804777	0.575553
0	H	0.185861	0.735787	0.42603
0	H	0.842106	0.262629	0.930862
0	H	0.842824	0.746379	0.0724208
0	H	0.185603	0.273599	0.577353
0	H	0.725139	0.290857	0.410977
0	H	0.267071	0.721061	0.894551
0	H	0.269277	0.286855	0.109378
0	H	0.726103	0.717792	0.592082
0	H	0.262549	0.777342	0.391534
0	H	0.75883	0.22697	0.895707
0	H	0.759856	0.781598	0.10769
0	H	0.262422	0.231875	0.611797
0	C	0.0196472	0.978107	0.300237
0	C	0.0261754	0.0373217	0.806487
0	C	0.0295192	0.971548	0.196994
0	C	0.0225596	0.0298455	0.702994
0	C	0.483945	0.460716	0.300048
0	C	0.525428	0.536509	0.806712
0	C	0.525498	0.472598	0.1965
0	C	0.483235	0.548518	0.703401
0	C	0.0826363	0.909589	0.300777
0	C	0.964629	0.10613	0.809862
0	C	0.967788	0.902805	0.193535
0	C	0.085411	0.0983963	0.702522
0	C	0.545951	0.387221	0.300536
0	C	0.463724	0.605694	0.809372
0	C	0.463839	0.403404	0.193814
0	C	0.545267	0.622007	0.702908
0	C	0.204557	0.911988	0.320755
0	C	0.843041	0.100754	0.829575
0	C	0.846483	0.908361	0.173746
0	C	0.207561	0.0961376	0.682612
0	C	0.66954	0.391507	0.320345
0	C	0.3423	0.600868	0.829107
0	C	0.342436	0.408253	0.174074
0	C	0.669051	0.617682	0.683162
0	C	0.223986	0.978705	0.335576
0	C	0.820332	0.0316552	0.841772
0	C	0.824321	0.9775	0.161544
0	C	0.227328	0.0294715	0.667771
0	C	0.695021	0.458977	0.333109
0	C	0.321563	0.532298	0.842129
0	C	0.321617	0.476852	0.161086
0	C	0.694476	0.550245	0.670385
0	C	0.34	0.988527	0.354505
0	C	0.702356	0.0196134	0.859858
0	C	0.706616	0.989711	0.143395
0	C	0.343471	0.0198183	0.648863
0	C	0.815327	0.469823	0.350876
0	C	0.204203	0.520681	0.860391
0	C	0.204263	0.488462	0.142823
0	C	0.81467	0.539421	0.652572
0	H	0.360847	0.0385614	0.365908
0	H	0.678319	0.967675	0.868984
0	H	0.683056	0.0416683	0.134233
0	H	0.364535	0.969841	0.637427
0	H	0.840444	0.522391	0.360218
0	H	0.18117	0.469073	0.870085
0	H	0.181221	0.540061	0.133125
0	H	0.839755	0.486833	0.643249
0	C	0.434223	0.931355	0.359492
0	C	0.609074	0.0763161	0.866697
0	C	0.612998	0.933163	0.136517
0	C	0.437567	0.0770669	0.643938
0	C	0.90623	0.412253	0.357539
0	C	0.110115	0.577529	0.866741
0	C	0.110212	0.431612	0.136452
0	C	0.905318	0.597021	0.645823
0	H	0.525533	0.939771	0.374882
0	H	0.514218	0.0655432	0.880369
0	H	0.518335	0.944086	0.122812
0	H	0.52896	0.0687722	0.628564
0	H	1.44166e-05	0.422039	0.372355
0	H	0.0161422	0.567049	0.880952
0	H	0.0161727	0.442105	0.122268
0	H	0.998867	0.587276	0.63093
0	C	0.413478	0.866769	0.345461
0	C	0.633774	0.143082	0.85515
0	C	0.637258	0.86635	0.148051
0	C	0.416561	0.141588	0.658014
0	C	0.880422	0.345202	0.346655
0	C	0.13323	0.643728	0.854568
0	C	0.133485	0.365374	0.14856
0	C	0.879462	0.664093	0.65669
0	H	0.486669	0.823594	0.349637
0	H	0.560271	0.185831	0.859695
0	H	0.563602	0.823696	0.14347
0	H	0.489699	0.184804	0.653895
0	H	0.947999	0.300741	0.353138
0	H	0.0608268	0.686945	0.85923
0	H	0.0611701	0.322141	0.143868
0	H	0.946726	0.70861	0.650103
0	C	0.296517	0.854803	0.325064
0	C	0.753942	0.158039	0.83633
0	C	0.757196	0.851196	0.166914
0	C	0.299384	0.153402	0.678371
0	C	0.761009	0.33322	0.327245
0	C	0.252	0.658012	0.835112
0	C	0.252343	0.351074	0.167993
0	C	0.760371	0.676008	0.676197
0	C	0.266754	0.791315	0.308515
0	C	0.787018	0.224471	0.82258
0	C	0.789822	0.784657	0.180618
0	C	0.269189	0.216815	0.694939
0	C	0.697104	0.278629	0.311497
0	C	0.283076	0.723628	0.820514
0	C	0.283682	0.285384	0.182489
0	C	0.696312	0.73056	0.691934
0	C	0.143728	0.788857	0.290187
0	C	0.905309	0.228213	0.802926
0	C	0.907939	0.780733	0.200315
0	C	0.145907	0.21916	0.713189
0	C	0.590323	0.262702	0.292938
0	C	0.404265	0.727403	0.80155
0	C	0.404727	0.281607	0.201492
0	C	0.589539	0.746551	0.71048
0	H	0.118734	0.739598	0.278664
0	H	0.927951	0.278423	0.79181
0	H	0.930347	0.730452	0.211381
0	H	0.12059	0.268385	0.724716
0	H	0.556931	0.211753	0.283178
0	H	0.428114	0.777984	0.790975
0	H	0.428676	0.230989	0.212024
0	H	0.556289	0.797449	0.720315
0	C	0.0524162	0.845726	0.285878
0	C	0.992594	0.171238	0.795753
0	C	0.995342	0.837605	0.207594
0	C	0.0547565	0.162205	0.717424
0	C	0.50571	0.326027	0.286644
0	C	0.493579	0.670711	0.795507
0	C	0.493832	0.338341	0.207621
0	C	0.5047	0.683251	0.716699
0	H	0.957876	0.841438	0.27128
0	H	0.0819953	0.176375	0.779515
0	H	0.0845494	0.832327	0.223873
0	H	0.959978	0.166378	0.731956
0	H	0.413233	0.319752	0.271147
0	H	0.586293	0.675913	0.780423
0	H	0.586506	0.333119	0.222717
0	H	0.411947	0.689579	0.732119
0	C	0.755564	0.85827	0.465471
0	C	0.275268	0.156163	0.96698
0	C	0.277866	0.852607	0.0363807
0	C	0.759624	0.149794	0.537932
0	C	0.23299	0.344652	0.469748
0	C	0.795971	0.663287	0.965902
0	C	0.795894	0.345713	0.0373619
0	C	0.232501	0.6643	0.53357
0	H	0.688829	0.889271	0.449411
0	H	0.335392	0.120442	0.951916
0	H	0.338236	0.888302	0.0514117
0	H	0.696156	0.117551	0.554031
0	H	0.161804	0.374925	0.454318
0	H	0.869153	0.632726	0.951044
0	H	0.869147	0.376242	0.0522221
0	H	0.161161	0.633983	0.548948
0	H	0.816713	0.894514	0.480148
0	H	0.208946	0.124446	0.982745
0	H	0.211561	0.884352	0.0206241
0	H	0.820953	0.114677	0.522737
0	H	0.297923	0.381982	0.483068
0	H	0.732847	0.62614	0.979813
0	H	0.73283	0.382894	0.0234554
0	H	0.297632	0.626956	0.520303
0	H	0.684108	0.828916	0.480857
0	H	0.352039	0.183597	0.981964
0	H	0.354411	0.825068	0.0213825
0	H	0.685706	0.178979	0.52307
0	H	0.166401	0.316425	0.486654
0	H	0.861279	0.692623	0.982789
0	H	0.861141	0.316361	0.020468
0	H	0.166122	0.692493	0.516614
0	O	0.650756	0.631683	0.486297
0	O	0.390233	0.382835	0.989193
0	O	0.391627	0.62611	0.0139963
0	O	0.653652	0.376582	0.517235
0	O	0.117136	0.117277	0.489469
0	O	0.919973	0.884161	0.986723
0	O	0.920061	0.124802	0.0166396
0	O	0.116577	0.891781	0.513923
0	H	0.693447	0.594117	0.498321
0	H	0.347458	0.422452	0.999896
0	H	0.348982	0.586263	0.00344784
0	H	0.696614	0.413512	0.504867
0	H	0.159173	0.0793156	0.501562
0	H	0.879272	0.922482	0.998853
0	H	0.879427	0.0864903	0.00449526
0	H	0.158836	0.929512	0.50173
0	O	0.827645	0.210473	0.386649
0	O	0.230945	0.828598	0.900026
0	O	0.236054	0.179198	0.103417
0	O	0.829998	0.797593	0.616519
0	O	0.295216	0.668875	0.395566
0	O	0.737111	0.335059	0.90282
0	O	0.738133	0.673567	0.100318
0	O	0.294956	0.340362	0.607893
0	O	0.924507	0.00305682	0.284328
0	O	0.12529	0.0155007	0.791305
0	O	0.128439	0.993277	0.21227
0	O	0.927214	0.00482229	0.718819
0	O	0.387881	0.479341	0.283731
0	O	0.622122	0.515778	0.79037
0	O	0.622249	0.4933	0.212834
0	O	0.387027	0.529907	0.719678
0	S	0.225485	0.190991	0.274688
0	S	0.841606	0.8206	0.777524
0	S	0.844337	0.188365	0.225783
0	S	0.228306	0.81695	0.728522
0	S	0.673965	0.679685	0.276191
0	S	0.338571	0.316158	0.782084
0	S	0.339128	0.693041	0.221152
0	S	0.673857	0.329491	0.727176
0	H	0.430623	0.903803	0.440957
0	H	0.572947	0.100948	0.946412
0	H	0.574754	0.910761	0.0573118
0	H	0.418445	0.110368	0.555931
0	H	0.0130528	0.407148	0.444064
0	H	0.0157688	0.595735	0.941859
0	H	0.0149371	0.413679	0.0613577
0	H	0.0156422	0.596577	0.558883
