#******************************************
#
# CIF file created by Zeo++
# Zeo++ is an open source package to
# analyze microporous materials
#
#*******************************************

_cell_length_a		9.8653(0)
_cell_length_b		18.2634(0)
_cell_length_c		14.285(0)
_cell_angle_alpha		90(0)
_cell_angle_beta		90.3194(0)
_cell_angle_gamma		90(0)

_symmetry_space_group_name_H-M		'P1'
_symmetry_Int_Tables_number		1
_symmetry_cell_setting		Monoclinic

loop_
_symmetry_equiv_pos_as_xyz
'+x,+y,+z'

loop_
_atom_site_label
_atom_site_type_symbol
_atom_site_fract_x
_atom_site_fract_y
_atom_site_fract_z
0	N	0.697596	0.226599	0.3937
0	N	0.31208	0.727391	0.218527
0	N	0.313291	0.776927	0.717938
0	N	0.698921	0.276143	0.893104
0	C	0.685287	0.233298	0.297606
0	C	0.324207	0.734155	0.314619
0	C	0.325612	0.770173	0.81404
0	C	0.686825	0.269378	0.796995
0	N	0.811685	0.251443	0.262877
0	N	0.197329	0.751187	0.349311
0	N	0.199226	0.752042	0.848784
0	N	0.813684	0.252324	0.762309
0	C	0.904591	0.256267	0.337194
0	C	0.10434	0.755339	0.274986
0	C	0.106291	0.747238	0.774495
0	C	0.906685	0.248184	0.836645
0	C	0.833316	0.242083	0.419607
0	C	0.17593	0.741596	0.192579
0	C	0.177527	0.761446	0.692072
0	C	0.835072	0.261933	0.919045
0	C	0.584932	0.209415	0.45787
0	C	0.424754	0.710138	0.154532
0	C	0.425826	0.79417	0.653797
0	C	0.586189	0.29338	0.957021
0	C	0.503531	0.27561	0.486298
0	C	0.506225	0.776159	0.125476
0	C	0.507423	0.728013	0.625321
0	C	0.504688	0.227352	0.986092
0	C	0.372846	0.264417	0.522123
0	C	0.639058	0.764831	0.093787
0	C	0.638056	0.739273	0.589521
0	C	0.371906	0.238706	0.0178408
0	C	0.296446	0.323644	0.553821
0	C	0.715754	0.823578	0.0609481
0	C	0.714565	0.680086	0.557785
0	C	0.295155	0.179969	0.0506608
0	C	0.349131	0.394856	0.548574
0	C	0.661819	0.894595	0.0614544
0	C	0.66194	0.608843	0.563035
0	C	0.349004	0.10893	0.0500986
0	C	0.479009	0.406161	0.511963
0	C	0.529327	0.905946	0.0933271
0	C	0.532126	0.597503	0.599679
0	C	0.481439	0.0975502	0.0181224
0	C	0.556224	0.346769	0.481701
0	C	0.451608	0.847001	0.124447
0	C	0.45479	0.656841	0.629907
0	C	0.559182	0.156474	0.986992
0	C	0.268172	0.457514	0.582596
0	C	0.74406	0.957022	0.0279433
0	C	0.742915	0.546198	0.52893
0	C	0.266767	0.0465106	0.0836507
0	C	0.241949	0.463778	0.678755
0	C	0.772046	0.963476	0.932105
0	C	0.769222	0.54003	0.432859
0	C	0.238822	0.0400647	0.179439
0	C	0.164926	0.521994	0.712865
0	C	0.848981	0.0220164	0.898704
0	C	0.846114	0.481769	0.398591
0	C	0.161955	0.981475	0.212905
0	C	0.113796	0.574648	0.651149
0	C	0.89877	0.0747384	0.960885
0	C	0.896973	0.428982	0.460192
0	C	0.112272	0.928744	0.15078
0	C	0.14058	0.56986	0.555506
0	C	0.870968	0.0695121	0.0563596
0	C	0.870215	0.433719	0.555875
0	C	0.140022	0.933962	0.0552563
0	C	0.217938	0.511373	0.520793
0	C	0.793619	0.010741	0.0902735
0	C	0.793019	0.4922	0.590676
0	C	0.217262	0.992729	0.0213087
0	C	0.247083	0.509014	0.420672
0	C	0.763179	0.00804385	0.190191
0	C	0.76374	0.494483	0.690778
0	C	0.247503	0.995445	0.9214
0	N	0.216422	0.451281	0.358539
0	N	0.792106	0.949952	0.252171
0	N	0.794333	0.552175	0.753018
0	N	0.218908	0.0535836	0.85948
0	N	0.259894	0.471839	0.271824
0	N	0.747263	0.970332	0.3386
0	N	0.750656	0.531545	0.839646
0	N	0.2634	0.0331204	0.772963
0	N	0.312904	0.537355	0.278939
0	N	0.695242	0.0361117	0.331485
0	N	0.697655	0.466034	0.832397
0	N	0.314856	0.967268	0.779994
0	N	0.307772	0.562651	0.367743
0	N	0.70246	0.0617176	0.242929
0	N	0.702978	0.440812	0.74356
0	N	0.307761	0.941601	0.868503
0	C	0.561689	0.222675	0.239478
0	C	0.448732	0.725528	0.372385
0	C	0.449257	0.780767	0.872161
0	C	0.562325	0.278009	0.73922
0	C	0.469923	0.290621	0.239964
0	C	0.535785	0.795291	0.371061
0	C	0.540863	0.712755	0.871734
0	C	0.475213	0.208271	0.740549
0	C	0.538546	0.357265	0.19684
0	C	0.463008	0.860494	0.414434
0	C	0.47206	0.646165	0.914792
0	C	0.547897	0.143042	0.697154
0	C	0.0557092	0.267078	0.318029
0	C	0.953099	0.765563	0.294092
0	C	0.955184	0.736404	0.793712
0	C	0.0579045	0.237957	0.817497
0	O	0.117542	0.310379	0.389633
0	O	0.890677	0.808462	0.222338
0	O	0.89333	0.693107	0.722131
0	O	0.120416	0.195129	0.889286
0	C	0.082146	0.309205	0.228102
0	C	0.9266	0.808153	0.383673
0	C	0.928727	0.694242	0.883593
0	C	0.0842826	0.195285	0.727945
0	C	0.122106	0.19123	0.318928
0	C	0.887552	0.689507	0.293545
0	C	0.888731	0.812236	0.792835
0	C	0.123493	0.314001	0.817846
0	C	0.87772	0.245089	0.520412
0	C	0.131576	0.744037	0.0917044
0	C	0.133058	0.758445	0.591276
0	C	0.879367	0.259424	0.0199453
0	O	0.99025	0.273627	0.540446
0	O	0.0180903	0.771478	0.0718192
0	O	0.0204267	0.730002	0.571315
0	O	0.9928	0.231934	0.0398352
0	O	0.798227	0.220809	0.581276
0	O	0.211904	0.720623	0.0308146
0	O	0.212567	0.782636	0.530362
0	O	0.798936	0.282763	0.0808166
0	H	0.830443	0.26311	0.189879
0	H	0.178583	0.7628	0.422328
0	H	0.180474	0.740319	0.921758
0	H	0.832377	0.240687	0.689282
0	H	0.628572	0.183325	0.52441
0	H	0.381344	0.683694	0.088195
0	H	0.382188	0.820201	0.587203
0	H	0.629567	0.319837	0.0234102
0	H	0.51993	0.166415	0.42473
0	H	0.489763	0.667284	0.18807
0	H	0.490815	0.837212	0.686893
0	H	0.521166	0.336203	0.923472
0	H	0.329855	0.209468	0.525526
0	H	0.683613	0.710172	0.0944337
0	H	0.680976	0.794245	0.586097
0	H	0.32736	0.29337	0.0172642
0	H	0.194246	0.314454	0.581428
0	H	0.819274	0.814077	0.0359742
0	H	0.816705	0.689314	0.530111
0	H	0.19165	0.189483	0.0756455
0	H	0.520658	0.461458	0.507487
0	H	0.486155	0.961082	0.0930238
0	H	0.490512	0.542198	0.604138
0	H	0.524553	0.0423958	0.0183642
0	H	0.657877	0.356905	0.454946
0	H	0.347872	0.857016	0.147191
0	H	0.353121	0.646655	0.65663
0	H	0.662851	0.146431	0.964125
0	H	0.283427	0.423093	0.726853
0	H	0.732105	0.922675	0.883538
0	H	0.727849	0.580793	0.384793
0	H	0.278742	0.0808762	0.228029
0	H	0.144876	0.52637	0.787706
0	H	0.869828	0.0266098	0.824
0	H	0.866164	0.477483	0.323748
0	H	0.141165	0.976925	0.287631
0	H	0.0526855	0.620338	0.677241
0	H	0.959551	0.120766	0.93539
0	H	0.957905	0.383246	0.43404
0	H	0.0516058	0.882674	0.176289
0	H	0.101348	0.611998	0.508002
0	H	0.909222	0.111606	0.104315
0	H	0.90928	0.39146	0.603284
0	H	0.101823	0.891828	0.00735133
0	H	0.172421	0.399698	0.37171
0	H	0.83589	0.898307	0.239109
0	H	0.838377	0.603762	0.739937
0	H	0.175323	0.105275	0.872584
0	H	0.505809	0.173062	0.263141
0	H	0.507512	0.677001	0.348546
0	H	0.505265	0.830306	0.848419
0	H	0.503537	0.326546	0.763035
0	H	0.591602	0.209242	0.165837
0	H	0.42035	0.711665	0.44618
0	H	0.419343	0.794269	0.945779
0	H	0.590706	0.291859	0.665418
0	H	0.436974	0.303353	0.312327
0	H	0.566746	0.808541	0.298393
0	H	0.573858	0.700023	0.79937
0	H	0.444264	0.195021	0.813218
0	H	0.375374	0.277607	0.20062
0	H	0.631868	0.784373	0.409649
0	H	0.635394	0.725696	0.911139
0	H	0.379114	0.21921	0.701987
0	H	0.464399	0.400482	0.180972
0	H	0.534346	0.904955	0.430715
0	H	0.546028	0.602865	0.93069
0	H	0.476531	0.0985499	0.681085
0	H	0.591525	0.343524	0.13115
0	H	0.410592	0.845555	0.479957
0	H	0.418919	0.659901	0.980409
0	H	0.600014	0.157924	0.631488
0	H	0.614301	0.381209	0.244035
0	H	0.385846	0.88323	0.367265
0	H	0.396285	0.622292	0.867478
0	H	0.625257	0.120371	0.7442
0	H	0.0819755	0.297191	0.456185
0	H	0.925679	0.794715	0.155785
0	H	0.928768	0.706364	0.655553
0	H	0.0852926	0.208834	0.955806
0	H	0.19051	0.322867	0.221757
0	H	0.817848	0.820635	0.390751
0	H	0.820333	0.680747	0.890055
0	H	0.193047	0.182789	0.720845
0	H	0.0270901	0.36125	0.224669
0	H	0.979937	0.860796	0.385766
0	H	0.983541	0.642122	0.886929
0	H	0.0309817	0.142627	0.725986
0	H	0.0551782	0.277572	0.164592
0	H	0.956008	0.777333	0.447369
0	H	0.956041	0.725813	0.947131
0	H	0.0548285	0.226005	0.664251
0	H	0.232173	0.196523	0.310525
0	H	0.777115	0.694541	0.299618
0	H	0.778706	0.806931	0.80146
0	H	0.233952	0.308929	0.812035
0	H	0.0833316	0.156507	0.262123
0	H	0.924476	0.655639	0.351737
0	H	0.927708	0.84699	0.849533
0	H	0.086896	0.347671	0.759347
0	H	0.104882	0.16258	0.385312
0	H	0.907832	0.659958	0.228177
0	H	0.905679	0.840818	0.726372
0	H	0.102901	0.343785	0.882981
