#******************************************
#
# CIF file created by Zeo++
# Zeo++ is an open source package to
# analyze microporous materials
#
#*******************************************

_cell_length_a		9.90473(0)
_cell_length_b		9.89387(0)
_cell_length_c		29.2695(0)
_cell_angle_alpha		90(0)
_cell_angle_beta		90(0)
_cell_angle_gamma		90(0)

_symmetry_space_group_name_H-M		'P1'
_symmetry_Int_Tables_number		1
_symmetry_cell_setting		Monoclinic

loop_
_symmetry_equiv_pos_as_xyz
'+x,+y,+z'

loop_
_atom_site_label
_atom_site_type_symbol
_atom_site_fract_x
_atom_site_fract_y
_atom_site_fract_z
0	C	0.0896859	0.216519	0.212884
0	C	0.0894901	0.830967	0.844175
0	C	0.900917	0.325967	0.719782
0	C	0.901175	0.721316	0.337336
0	C	0.107834	0.0626532	0.211548
0	C	0.107528	0.984849	0.845548
0	C	0.883423	0.479827	0.717622
0	C	0.883788	0.567469	0.33961
0	C	0.221336	0.0187241	0.180847
0	C	0.221148	0.0288395	0.876185
0	C	0.774605	0.522182	0.68477
0	C	0.774842	0.52519	0.372433
0	C	0.222883	0.872797	0.168265
0	C	0.222708	0.174814	0.88874
0	C	0.775514	0.667424	0.671261
0	C	0.775685	0.379963	0.38595
0	C	0.318025	0.104586	0.167104
0	C	0.317921	0.943039	0.8899
0	C	0.67953	0.435867	0.67009
0	C	0.679723	0.611558	0.387047
0	C	0.328762	0.248866	0.18194
0	C	0.328642	0.79874	0.875076
0	C	0.665863	0.292684	0.685916
0	C	0.666123	0.754707	0.37119
0	O	0.319183	0.323059	0.138679
0	O	0.319177	0.72456	0.918342
0	O	0.681697	0.21499	0.643608
0	O	0.682076	0.832548	0.413469
0	C	0.297575	0.466044	0.141653
0	C	0.297688	0.581552	0.915375
0	C	0.701367	0.071966	0.648327
0	C	0.701757	0.975548	0.408682
0	C	0.163618	0.484659	0.167142
0	C	0.163663	0.562872	0.889932
0	C	0.831113	0.0540449	0.676285
0	C	0.83145	0.993364	0.380691
0	C	0.027891	0.477141	0.145054
0	C	0.0279831	0.570399	0.912059
0	C	0.970537	0.0578302	0.656886
0	C	0.970927	0.989645	0.400052
0	O	0.0888677	0.607917	0.156522
0	O	0.0889346	0.439626	0.90058
0	O	0.906137	0.92903	0.668752
0	O	0.906521	0.118397	0.388138
0	C	0.201381	0.45077	0.216851
0	C	0.20128	0.596769	0.840206
0	C	0.786464	0.0930708	0.724845
0	C	0.786721	0.954152	0.33216
0	C	0.0999511	0.504181	0.251159
0	C	0.0997767	0.543288	0.805943
0	C	0.882105	0.0424249	0.761479
0	C	0.882291	0.00461427	0.295475
0	C	0.343987	0.519861	0.221601
0	C	0.34389	0.527737	0.835415
0	C	0.64291	0.0251014	0.727819
0	C	0.643196	0.0221698	0.329187
0	C	0.398811	0.53911	0.172968
0	C	0.398866	0.508553	0.884025
0	C	0.593959	0.00398691	0.678602
0	C	0.59428	0.0433872	0.378404
0	O	0.328735	0.654424	0.241831
0	O	0.328653	0.393128	0.815217
0	O	0.654917	0.890763	0.748458
0	O	0.655269	0.156511	0.308549
0	C	0.364245	0.666938	0.287108
0	C	0.363986	0.380534	0.76993
0	C	0.626133	0.882692	0.794357
0	C	0.626289	0.164681	0.262671
0	O	0.412632	0.573286	0.30836
0	O	0.412257	0.474122	0.748627
0	O	0.583613	0.979448	0.815502
0	O	0.583606	0.067997	0.241522
0	C	0.33811	0.805782	0.303403
0	C	0.337876	0.241617	0.753677
0	C	0.651791	0.744681	0.811404
0	C	0.652017	0.302672	0.245628
0	C	0.289243	0.8338	0.345046
0	C	0.289014	0.213612	0.712027
0	C	0.703447	0.719598	0.85289
0	C	0.703641	0.327752	0.204143
0	C	0.244421	0.733049	0.378576
0	C	0.244123	0.314344	0.678496
0	C	0.750629	0.82346	0.884889
0	C	0.750784	0.223873	0.172151
0	C	0.215237	0.762833	0.422276
0	C	0.21561	0.284781	0.634731
0	C	0.788914	0.796425	0.927959
0	C	0.789129	0.250901	0.129087
0	C	0.164436	0.665903	0.456212
0	C	0.164835	0.381807	0.600807
0	C	0.839461	0.897123	0.960337
0	C	0.839639	0.150191	0.096704
0	C	0.637224	0.77145	0.514919
0	C	0.637448	0.27551	0.541765
0	C	0.335453	0.815587	0.0238937
0	C	0.334872	0.231617	0.0330905
0	C	0.502958	0.839691	0.511618
0	C	0.503149	0.207656	0.545669
0	C	0.460609	0.731916	0.0263416
0	C	0.460409	0.314701	0.0307358
0	O	0.698726	0.761571	0.55074
0	O	0.698218	0.283946	0.505759
0	O	0.260893	0.832507	0.0564732
0	O	0.260368	0.215167	0.000459635
0	O	0.103286	0.564595	0.436027
0	O	0.102899	0.482616	0.620998
0	O	0.905667	0.993992	0.939918
0	O	0.905578	0.0531507	0.117132
0	C	0.0451848	0.460771	0.466085
0	C	0.0446285	0.586359	0.59095
0	C	0.95857	0.101656	0.969799
0	C	0.958321	0.945432	0.087226
0	C	0.136463	0.335335	0.467127
0	C	0.135661	0.712063	0.589981
0	C	0.861284	0.222256	0.969846
0	C	0.860915	0.82495	0.0872012
0	O	0.233493	0.345419	0.503162
0	O	0.232428	0.702214	0.55386
0	O	0.765098	0.213165	0.00602484
0	O	0.764731	0.834147	0.0510261
0	C	0.21764	0.309503	0.423625
0	C	0.217076	0.737633	0.633456
0	C	0.778258	0.238609	0.926267
0	C	0.777955	0.808596	0.130796
0	C	0.367058	0.317088	0.427644
0	C	0.366457	0.729354	0.629381
0	C	0.631757	0.206406	0.928889
0	C	0.631409	0.840617	0.128184
0	C	0.154905	0.277225	0.384228
0	C	0.154466	0.770274	0.672838
0	C	0.835945	0.28589	0.887835
0	C	0.835752	0.761414	0.169222
0	C	0.230023	0.226135	0.344627
0	C	0.229697	0.821362	0.712417
0	C	0.754345	0.330569	0.848875
0	C	0.754277	0.716671	0.208206
0	O	0.314096	0.135599	0.345107
0	O	0.313871	0.911754	0.71192
0	O	0.666043	0.416717	0.849451
0	O	0.666027	0.630441	0.207653
0	O	0.196603	0.286621	0.303779
0	O	0.196234	0.760959	0.753286
0	O	0.788643	0.268366	0.80856
0	O	0.788699	0.778818	0.248517
0	C	0.288308	0.253427	0.265692
0	C	0.28804	0.79414	0.791342
0	C	0.69635	0.294897	0.770229
0	C	0.696558	0.752108	0.286884
0	C	0.223449	0.293384	0.219519
0	C	0.223275	0.754175	0.837531
0	C	0.765697	0.250748	0.725337
0	C	0.765923	0.796474	0.331747
0	H	0.0190865	0.243674	0.240827
0	H	0.0189209	0.803858	0.816231
0	H	0.968679	0.29936	0.748585
0	H	0.968882	0.747771	0.308499
0	H	0.041905	0.248349	0.180394
0	H	0.0417079	0.799059	0.876653
0	H	0.951271	0.292391	0.687951
0	H	0.951576	0.755129	0.369132
0	H	0.0116403	0.0156411	0.199956
0	H	0.0113451	0.0317374	0.857214
0	H	0.981268	0.526584	0.707774
0	H	0.981624	0.520862	0.349553
0	H	0.125711	0.0221523	0.246412
0	H	0.125173	0.0254428	0.81068
0	H	0.859945	0.521221	0.751996
0	H	0.860535	0.525819	0.305257
0	H	0.123733	0.822866	0.171368
0	H	0.123483	0.224654	0.885703
0	H	0.877961	0.711294	0.669195
0	H	0.87812	0.336101	0.38809
0	H	0.290858	0.814861	0.190938
0	H	0.290485	0.232721	0.865998
0	H	0.721899	0.729956	0.696863
0	H	0.722269	0.317392	0.360319
0	H	0.257849	0.854979	0.132936
0	H	0.257884	0.192727	0.924037
0	H	0.726237	0.686581	0.638162
0	H	0.726207	0.360801	0.419016
0	H	0.398423	0.072699	0.144099
0	H	0.39841	0.974989	0.912854
0	H	0.602727	0.466318	0.645536
0	H	0.602804	0.581132	0.411573
0	H	0.433555	0.26943	0.194368
0	H	0.433387	0.778183	0.862614
0	H	0.559361	0.273597	0.696904
0	H	0.559634	0.773846	0.360216
0	H	0.298956	0.499076	0.105599
0	H	0.2992	0.548514	0.951426
0	H	0.704615	0.0355451	0.61265
0	H	0.705059	0.0121398	0.44435
0	H	0.93844	0.453342	0.165101
0	H	0.938495	0.594194	0.892037
0	H	0.0567052	0.0830083	0.678343
0	H	0.0570113	0.964367	0.378573
0	H	0.0187207	0.457584	0.108608
0	H	0.0189014	0.589984	0.948507
0	H	0.986335	0.0730685	0.620485
0	H	0.986816	0.97455	0.436455
0	H	0.133508	0.485363	0.286474
0	H	0.133087	0.562274	0.770609
0	H	0.841461	0.0611455	0.795945
0	H	0.841409	0.986124	0.26103
0	H	0.000921344	0.456092	0.247366
0	H	0.000674151	0.591179	0.809818
0	H	0.980478	0.0930805	0.759925
0	H	0.98052	0.953657	0.296948
0	H	0.0858501	0.613788	0.246797
0	H	0.085884	0.433644	0.810276
0	H	0.89996	0.933226	0.75757
0	H	0.900484	0.113777	0.299413
0	H	0.413999	0.461268	0.243873
0	H	0.413871	0.586412	0.813069
0	H	0.570642	0.0845659	0.749011
0	H	0.570924	0.962744	0.308005
0	H	0.40489	0.648402	0.164467
0	H	0.404985	0.399252	0.892527
0	H	0.58531	0.894352	0.670757
0	H	0.585589	0.153037	0.386216
0	H	0.503041	0.500556	0.169479
0	H	0.503101	0.547082	0.887487
0	H	0.491689	0.0456353	0.673189
0	H	0.492035	0.00169812	0.383843
0	H	0.362461	0.885961	0.278718
0	H	0.362263	0.16152	0.778337
0	H	0.625437	0.663017	0.78759
0	H	0.625666	0.384402	0.269465
0	H	0.278144	0.940868	0.355508
0	H	0.27796	0.106549	0.701562
0	H	0.714844	0.61348	0.864204
0	H	0.715054	0.433859	0.192822
0	H	0.233071	0.629032	0.365823
0	H	0.232136	0.418214	0.691321
0	H	0.755275	0.927457	0.871628
0	H	0.755339	0.119857	0.185403
0	H	0.230501	0.864186	0.436399
0	H	0.23145	0.183598	0.620542
0	H	0.779631	0.695302	0.942933
0	H	0.779904	0.352016	0.114106
0	H	0.188872	0.683931	0.52312
0	H	0.190436	0.365281	0.533857
0	H	0.806302	0.871448	0.0214549
0	H	0.80671	0.17594	0.0356036
0	H	0.678486	0.730665	0.482581
0	H	0.679411	0.317443	0.573824
0	H	0.313266	0.861925	0.990337
0	H	0.312307	0.185248	0.0666116
0	H	0.465139	0.843881	0.476395
0	H	0.466337	0.204242	0.58102
0	H	0.489294	0.690614	0.992879
0	H	0.488696	0.356486	0.0641695
0	H	0.506086	0.943947	0.525089
0	H	0.50559	0.103149	0.532391
0	H	0.452412	0.64824	0.0507608
0	H	0.453086	0.397947	0.0061222
0	H	0.425534	0.786096	0.53232
0	H	0.425246	0.261051	0.525088
0	H	0.548693	0.792518	0.0381478
0	H	0.548484	0.253471	0.0192447
0	H	0.0293121	0.502508	0.500902
0	H	0.0289819	0.544754	0.556135
0	H	0.975735	0.061311	0.00478994
0	H	0.975477	0.985741	0.0522354
0	H	0.946318	0.440744	0.449529
0	H	0.945661	0.606117	0.607485
0	H	0.0575418	0.125276	0.953768
0	H	0.0573172	0.921717	0.103239
0	H	0.07191	0.244381	0.474373
0	H	0.0709532	0.803029	0.582898
0	H	0.921304	0.317055	0.975902
0	H	0.920808	0.73008	0.0811336
0	H	0.405358	0.411693	0.412489
0	H	0.404106	0.633785	0.644021
0	H	0.604297	0.124231	0.905204
0	H	0.604088	0.92344	0.151633
0	H	0.418574	0.233464	0.409805
0	H	0.418575	0.811781	0.647648
0	H	0.568827	0.294093	0.91949
0	H	0.568582	0.753168	0.137906
0	H	0.403121	0.315827	0.463497
0	H	0.402391	0.731991	0.593521
0	H	0.599877	0.174713	0.96352
0	H	0.599288	0.871366	0.093476
0	H	0.0442831	0.280425	0.380006
0	H	0.0438554	0.76739	0.677064
0	H	0.945676	0.300133	0.883919
0	H	0.945486	0.747312	0.173131
0	H	0.381251	0.312388	0.272921
0	H	0.38096	0.735181	0.784085
0	H	0.604919	0.234121	0.777877
0	H	0.604947	0.812643	0.279259
0	H	0.311253	0.143876	0.266969
0	H	0.310987	0.903694	0.790063
0	H	0.670153	0.403738	0.770016
0	H	0.670629	0.643191	0.287117
