#******************************************
#
# CIF file created by Zeo++
# Zeo++ is an open source package to
# analyze microporous materials
#
#*******************************************

_cell_length_a		18.9455(0)
_cell_length_b		19.6828(0)
_cell_length_c		9.37051(0)
_cell_angle_alpha		90(0)
_cell_angle_beta		90(0)
_cell_angle_gamma		90(0)

_symmetry_space_group_name_H-M		'P1'
_symmetry_Int_Tables_number		1
_symmetry_cell_setting		Monoclinic

loop_
_symmetry_equiv_pos_as_xyz
'+x,+y,+z'

loop_
_atom_site_label
_atom_site_type_symbol
_atom_site_fract_x
_atom_site_fract_y
_atom_site_fract_z
0	P	0.432886	0.587512	0.0669981
0	P	0.0797094	0.882696	0.0560485
0	P	0.918604	0.418302	0.12323
0	P	0.60352	0.063346	0.0621578
0	P	0.579447	0.387087	0.873549
0	P	0.933042	0.0918069	0.884421
0	P	0.094278	0.55591	0.819131
0	P	0.409306	0.911522	0.87795
0	F	0.394169	0.574855	0.211318
0	F	0.120064	0.892776	0.199376
0	F	0.928008	0.403801	0.285457
0	F	0.58787	0.102514	0.203219
0	F	0.618023	0.399967	0.729165
0	F	0.892838	0.0817256	0.740938
0	F	0.0847914	0.570599	0.656993
0	F	0.425164	0.872432	0.73692
0	F	0.429838	0.508945	0.0333216
0	F	0.0765463	0.9621	0.0349914
0	F	0.00149439	0.413607	0.101326
0	F	0.522216	0.0634625	0.0257415
0	F	0.582712	0.46557	0.908029
0	F	0.936829	0.0123774	0.904888
0	F	0.0114691	0.560618	0.84162
0	F	0.490547	0.911469	0.914816
0	F	0.361058	0.590281	0.980179
0	F	0.149676	0.888144	0.96329
0	F	0.920021	0.339802	0.084792
0	F	0.605198	0.131141	0.970631
0	F	0.651338	0.383939	0.960077
0	F	0.8631	0.0856011	0.977124
0	F	0.092997	0.634405	0.857792
0	F	0.407537	0.843723	0.969558
0	F	0.507089	0.571299	0.133022
0	F	0.00565131	0.891136	0.128257
0	F	0.933086	0.496183	0.147146
0	F	0.588297	0.992502	0.132414
0	F	0.505228	0.403635	0.807915
0	F	0.00718939	0.0839684	0.812278
0	F	0.0797428	0.478062	0.794906
0	F	0.424562	0.98239	0.807774
0	N	0.482436	0.592778	0.863463
0	N	0.0277561	0.878867	0.855548
0	N	0.914372	0.43697	0.907834
0	N	0.612535	0.0140693	0.860715
0	N	0.529957	0.381576	0.077168
0	N	0.985023	0.0956815	0.0849495
0	N	0.0988201	0.537061	0.0346447
0	N	0.400088	0.96086	0.0792938
0	N	0.536919	0.707066	0.823889
0	N	0.979333	0.762221	0.810955
0	N	0.809755	0.511325	0.847153
0	N	0.73348	0.965728	0.825576
0	N	0.475144	0.267363	0.11588
0	N	0.0340129	0.212219	0.128983
0	N	0.20395	0.463286	0.0948961
0	N	0.279102	0.00923982	0.113948
0	N	0.546741	0.620056	0.652244
0	N	0.970602	0.84892	0.637937
0	N	0.892436	0.476291	0.6739
0	N	0.645046	0.95251	0.651549
0	N	0.465376	0.354171	0.287932
0	N	0.0422391	0.125636	0.302437
0	N	0.120954	0.497334	0.26827
0	N	0.367397	0.0224239	0.28833
0	C	0.438333	0.683281	0.0842717
0	C	0.0827038	0.786387	0.0577005
0	C	0.818004	0.421788	0.125907
0	C	0.702851	0.0610137	0.0840118
0	C	0.573694	0.291367	0.855351
0	C	0.929258	0.18805	0.884007
0	C	0.194857	0.552385	0.816075
0	C	0.30999	0.913753	0.855653
0	C	0.518487	0.636917	0.789337
0	C	0.995911	0.833102	0.777987
0	C	0.874526	0.47293	0.821341
0	C	0.660343	0.980897	0.788567
0	C	0.493683	0.337429	0.150869
0	C	0.0170395	0.141414	0.162268
0	C	0.138859	0.501152	0.120891
0	C	0.3522	0.994022	0.151276
0	C	0.382977	0.715227	0.0355286
0	C	0.136337	0.758672	0.992969
0	C	0.786882	0.366942	0.0805323
0	C	0.734684	0.115529	0.037683
0	C	0.629063	0.259242	0.903481
0	C	0.875823	0.215335	0.950205
0	C	0.226014	0.607281	0.861142
0	C	0.278219	0.859127	0.901571
0	C	0.502364	0.704346	0.155148
0	C	0.0236073	0.760691	0.138969
0	C	0.795884	0.485754	0.185987
0	C	0.726136	0.99992	0.155028
0	C	0.509549	0.27051	0.784644
0	C	0.987681	0.214167	0.801269
0	C	0.216935	0.48836	0.75621
0	C	0.286706	0.974824	0.784577
0	C	0.570548	0.70166	0.0787779
0	C	0.953225	0.757379	0.0717584
0	C	0.803397	0.549337	0.103742
0	C	0.724865	0.933998	0.0795257
0	C	0.441403	0.273383	0.861168
0	C	0.0583174	0.21834	0.867118
0	C	0.209456	0.424852	0.838717
0	C	0.288045	0.0407828	0.859969
0	C	0.562951	0.735839	0.940603
0	C	0.957947	0.729852	0.92734
0	C	0.78129	0.544343	0.955867
0	C	0.762794	0.941563	0.943954
0	C	0.448966	0.238856	0.998985
0	C	0.0545562	0.244864	0.0123258
0	C	0.232303	0.4302	0.986159
0	C	0.249947	0.0333139	0.995351
0	C	0.630729	0.677708	0.128128
0	C	0.892947	0.772477	0.135014
0	C	0.82295	0.60812	0.159968
0	C	0.699009	0.876188	0.127358
0	C	0.381258	0.297561	0.812225
0	C	0.118363	0.204546	0.801513
0	C	0.189438	0.366055	0.783388
0	C	0.314151	0.0984902	0.812142
0	C	0.504795	0.749738	0.416474
0	C	0.0380778	0.722659	0.403612
0	C	0.74555	0.493973	0.444312
0	C	0.774456	0.997964	0.415502
0	C	0.506759	0.224782	0.523582
0	C	0.970508	0.250643	0.536307
0	C	0.267221	0.480007	0.49786
0	C	0.23824	0.976776	0.524227
0	C	0.51011	0.769894	0.544316
0	C	0.0411857	0.70621	0.534698
0	C	0.724453	0.501753	0.571753
0	C	0.796903	0.992777	0.54232
0	C	0.501322	0.204363	0.395929
0	C	0.965161	0.26635	0.404994
0	C	0.288224	0.472393	0.370355
0	C	0.215748	0.982012	0.397445
0	C	0.501581	0.729102	0.286358
0	C	0.0324079	0.73971	0.271941
0	C	0.768009	0.488337	0.315421
0	C	0.752113	0.00107543	0.286
0	C	0.510144	0.24566	0.653502
0	C	0.97775	0.234314	0.668017
0	C	0.244756	0.485666	0.626752
0	C	0.260664	0.973669	0.65367
0	C	0.546543	0.570532	0.539357
0	C	0.971225	0.899489	0.527077
0	C	0.949511	0.445746	0.593755
0	C	0.594364	0.950925	0.537452
0	C	0.465385	0.403585	0.401075
0	C	0.0416279	0.0749266	0.413018
0	C	0.0635022	0.527026	0.348709
0	C	0.41801	0.0239702	0.402575
0	C	0.591766	0.634041	0.542054
0	C	0.932768	0.83208	0.518623
0	C	0.896632	0.501831	0.541603
0	C	0.662143	0.91008	0.541149
0	C	0.420107	0.340118	0.397746
0	C	0.0799595	0.142387	0.421959
0	C	0.116712	0.4711	0.399979
0	C	0.350226	0.0647966	0.398759
0	C	0.518636	0.514506	0.495529
0	C	0.995501	0.958322	0.491257
0	C	0.00177479	0.408106	0.560027
0	C	0.53519	0.975933	0.494302
0	C	0.493332	0.459556	0.445158
0	C	0.0174314	0.0160277	0.448571
0	C	0.0107834	0.563978	0.382977
0	C	0.477135	0.998881	0.445819
0	H	0.477497	0.544589	0.817045
0	H	0.0301745	0.927742	0.811527
0	H	0.959645	0.416136	0.859966
0	H	0.562762	0.0169335	0.812356
0	H	0.534939	0.4297	0.123883
0	H	0.982475	0.0468485	0.12918
0	H	0.0534142	0.557539	0.0826506
0	H	0.449824	0.958007	0.127845
0	H	0.528992	0.741214	0.736379
0	H	0.988016	0.729759	0.722739
0	H	0.776603	0.512773	0.755439
0	H	0.769265	0.974092	0.73945
0	H	0.482964	0.233073	0.203102
0	H	0.0263573	0.244413	0.217528
0	H	0.237409	0.462376	0.186312
0	H	0.243225	0.00087471	0.199861
