#******************************************
#
# CIF file created by Zeo++
# Zeo++ is an open source package to
# analyze microporous materials
#
#*******************************************

_cell_length_a		16.551(0)
_cell_length_b		17.2423(0)
_cell_length_c		18.0666(0)
_cell_angle_alpha		88.4588(0)
_cell_angle_beta		59.4773(0)
_cell_angle_gamma		74.273(0)

_symmetry_space_group_name_H-M		'P1'
_symmetry_Int_Tables_number		1
_symmetry_cell_setting		Triclinic

loop_
_symmetry_equiv_pos_as_xyz
'+x,+y,+z'

loop_
_atom_site_label
_atom_site_type_symbol
_atom_site_fract_x
_atom_site_fract_y
_atom_site_fract_z
0	P	0.415533	0.230321	0.58751
0	P	0.509255	0.875312	0.417109
0	P	0.42036	0.247376	0.911125
0	P	0.504421	0.858378	0.0935087
0	Se	0.507703	0.195941	0.464233
0	Se	0.417049	0.909705	0.540382
0	Se	0.32984	0.335044	0.00743837
0	Se	0.595078	0.770715	0.997208
0	O	0.446394	0.221963	0.662913
0	O	0.47844	0.883665	0.341678
0	O	0.526941	0.25693	0.828911
0	O	0.397823	0.848788	0.175662
0	O	0.470781	0.164689	0.940992
0	O	0.454013	0.941027	0.0635846
0	O	0.38145	0.212619	0.852625
0	O	0.543193	0.893213	0.152098
0	O	0.326137	0.185083	0.641597
0	O	0.598656	0.920562	0.363074
0	O	0.353798	0.32991	0.613793
0	O	0.570949	0.775711	0.390826
0	C	0.596262	0.199096	0.658292
0	C	0.328583	0.906338	0.346273
0	C	0.535573	0.167346	0.64492
0	C	0.389201	0.938176	0.359667
0	C	0.55654	0.0825406	0.623362
0	C	0.368144	0.0230022	0.381219
0	H	0.503643	0.0594123	0.619069
0	H	0.420977	0.0462025	0.385547
0	C	0.641337	0.0304143	0.613604
0	C	0.283343	0.0750499	0.390905
0	H	0.658001	0.964816	0.599173
0	H	0.266617	0.140663	0.40532
0	C	0.794956	0.00508783	0.617271
0	C	0.129847	0.100267	0.387094
0	H	0.809031	0.940455	0.601053
0	H	0.115764	0.164907	0.40325
0	C	0.856968	0.0325481	0.631946
0	C	0.0678809	0.0727362	0.372416
0	C	0.834362	0.118244	0.653015
0	C	0.0905307	0.987016	0.351436
0	H	0.884212	0.14009	0.663664
0	H	0.0407036	0.965122	0.340794
0	C	0.752101	0.172159	0.660188
0	C	0.172752	0.933133	0.344345
0	H	0.735875	0.237529	0.67629
0	H	0.18898	0.867747	0.328324
0	C	0.707842	0.0598547	0.625079
0	C	0.216922	0.0455285	0.379388
0	C	0.685235	0.144388	0.64772
0	C	0.239588	0.960976	0.356814
0	C	0.568674	0.286518	0.686818
0	C	0.356255	0.818931	0.31765
0	C	0.528195	0.314595	0.773288
0	C	0.396645	0.790997	0.231158
0	C	0.501912	0.398434	0.803261
0	C	0.422905	0.707208	0.201042
0	H	0.47381	0.418003	0.870952
0	H	0.450918	0.687773	0.133341
0	C	0.515483	0.453447	0.74497
0	C	0.409432	0.65206	0.25919
0	H	0.49534	0.518009	0.766281
0	H	0.42956	0.587533	0.237769
0	C	0.573256	0.485234	0.594088
0	C	0.351778	0.620033	0.40999
0	H	0.550997	0.549031	0.619271
0	H	0.373994	0.556275	0.384715
0	C	0.615199	0.461107	0.507184
0	C	0.30991	0.644014	0.496917
0	C	0.644569	0.376124	0.477877
0	C	0.280576	0.728954	0.52638
0	H	0.678756	0.356697	0.408851
0	H	0.246445	0.748277	0.595421
0	C	0.630486	0.319708	0.534574
0	C	0.294645	0.785449	0.469771
0	H	0.654764	0.255095	0.511271
0	H	0.270411	0.850038	0.493173
0	C	0.55742	0.427749	0.654947
0	C	0.367591	0.67761	0.349232
0	C	0.585161	0.34398	0.625507
0	C	0.339877	0.761342	0.378824
0	C	0.947059	0.975516	0.630126
0	C	0.9778	0.12967	0.374145
0	C	0.919845	0.968683	0.724715
0	C	0.0051165	0.136429	0.279522
0	H	0.978272	0.923733	0.728347
0	H	0.946628	0.181205	0.275821
0	H	0.852127	0.95081	0.761967
0	H	0.0727222	0.154469	0.242328
0	H	0.906789	0.0271377	0.758615
0	H	0.0184174	0.0779036	0.245599
0	C	0.97808	0.8903	0.582536
0	C	0.94664	0.214929	0.421724
0	H	0.99735	0.893433	0.515066
0	H	0.927632	0.211811	0.489127
0	H	0.920073	0.860848	0.613972
0	H	0.00447759	0.244543	0.390134
0	H	0.0431694	0.850531	0.581016
0	H	0.881345	0.254526	0.423441
0	C	0.0346863	0.0101431	0.583454
0	C	0.890235	0.0949626	0.420749
0	H	0.101302	0.968365	0.577483
0	H	0.823651	0.136612	0.426539
0	H	0.0208679	0.0680658	0.61767
0	H	0.904236	0.0369438	0.386581
0	H	0.0513596	0.0202993	0.517583
0	H	0.873417	0.0849501	0.486688
0	C	0.634598	0.520878	0.440046
0	C	0.290559	0.584072	0.563884
0	C	0.601189	0.502056	0.378758
0	C	0.323985	0.602686	0.625231
0	H	0.6032	0.54932	0.336578
0	H	0.322159	0.555222	0.667171
0	H	0.524652	0.499529	0.416179
0	H	0.400461	0.605362	0.587829
0	H	0.647236	0.44397	0.336967
0	H	0.277836	0.660639	0.667261
0	C	0.746	0.509836	0.388501
0	C	0.179168	0.595058	0.61535
0	H	0.771157	0.523058	0.43097
0	H	0.153754	0.583338	0.572585
0	H	0.764312	0.55117	0.339175
0	H	0.16111	0.552598	0.663503
0	H	0.788731	0.447756	0.355424
0	H	0.136468	0.656693	0.649792
0	C	0.578997	0.609603	0.48292
0	C	0.346178	0.49541	0.520802
0	H	0.498851	0.619632	0.522115
0	H	0.426308	0.485437	0.48147
0	H	0.591339	0.651886	0.434186
0	H	0.334042	0.453002	0.569407
0	H	0.602385	0.628352	0.524587
0	H	0.322624	0.476771	0.479225
0	C	0.46693	0.0509675	0.866831
0	C	0.457858	0.0547762	0.137724
0	C	0.517986	0.0910573	0.885338
0	C	0.406807	0.0146817	0.119218
0	C	0.618967	0.0570776	0.857947
0	C	0.305824	0.0486542	0.146599
0	H	0.653782	0.0918107	0.87631
0	H	0.271027	0.013928	0.128208
0	C	0.668447	0.981568	0.810232
0	C	0.256318	0.124138	0.194363
0	H	0.745717	0.952943	0.7902
0	H	0.179037	0.152738	0.214405
0	C	0.676897	0.864763	0.72582
0	C	0.247846	0.240908	0.278858
0	H	0.752427	0.838029	0.70979
0	H	0.172294	0.267623	0.29493
0	C	0.635992	0.827842	0.692567
0	C	0.288764	0.277817	0.312111
0	C	0.535388	0.865025	0.718122
0	C	0.389387	0.240656	0.286492
0	H	0.50282	0.835997	0.691637
0	H	0.421974	0.269675	0.31297
0	C	0.480333	0.935817	0.77445
0	C	0.444451	0.169894	0.230116
0	H	0.403828	0.963639	0.793034
0	H	0.52097	0.14208	0.211484
0	C	0.622136	0.940037	0.782669
0	C	0.302616	0.165673	0.221955
0	C	0.522018	0.975607	0.808989
0	C	0.402749	0.130122	0.195591
0	C	0.360038	0.084914	0.905464
0	C	0.564747	0.0208237	0.0990974
0	C	0.3199	0.164344	0.898278
0	C	0.604835	0.941406	0.106364
0	C	0.217837	0.200126	0.931192
0	C	0.706888	0.905569	0.0734243
0	H	0.192419	0.261955	0.919502
0	H	0.732269	0.843737	0.0851338
0	C	0.155192	0.15517	0.975679
0	C	0.769587	0.950468	0.0288583
0	H	0.0766212	0.180464	0.00114464
0	H	0.848163	0.92511	0.00333479
0	C	0.124908	0.0299655	0.0424941
0	C	0.799953	0.0756508	0.96204
0	H	0.04684	0.0587469	0.0680473
0	H	0.878012	0.0468337	0.936491
0	C	0.158045	0.953787	0.0602658
0	C	0.766871	0.151814	0.944211
0	C	0.261579	0.918083	0.0233299
0	C	0.663337	0.187572	0.981164
0	H	0.288525	0.857273	0.0362169
0	H	0.636427	0.248386	0.968266
0	C	0.326882	0.959271	0.973515
0	C	0.598001	0.146415	0.0309734
0	H	0.405427	0.932151	0.948726
0	H	0.519457	0.173551	0.0557508
0	C	0.191274	0.0745192	0.990597
0	C	0.733552	0.0311218	0.0139279
0	C	0.293735	0.039039	0.955327
0	C	0.631096	0.066639	0.0491792
0	C	0.692765	0.748228	0.630089
0	C	0.231972	0.357395	0.37466
0	C	0.676873	0.756959	0.552917
0	C	0.247979	0.348608	0.451766
0	H	0.722284	0.703491	0.503457
0	H	0.202448	0.401979	0.501351
0	H	0.696395	0.809581	0.520944
0	H	0.228698	0.295862	0.483596
0	H	0.60032	0.764781	0.572798
0	H	0.324514	0.340945	0.431836
0	C	0.804045	0.725679	0.594306
0	C	0.120682	0.379877	0.410516
0	H	0.843454	0.668478	0.550065
0	H	0.081225	0.43699	0.454907
0	H	0.820199	0.717909	0.646237
0	H	0.104451	0.387777	0.358639
0	H	0.835193	0.772214	0.557364
0	H	0.0896536	0.33323	0.44731
0	C	0.65332	0.680246	0.680227
0	C	0.271333	0.425415	0.324535
0	H	0.658225	0.676917	0.738556
0	H	0.266267	0.428808	0.266289
0	H	0.695374	0.620336	0.640389
0	H	0.229327	0.485301	0.36444
0	H	0.576163	0.690478	0.701072
0	H	0.348531	0.415167	0.303547
0	C	0.0881536	0.90566	0.11708
0	C	0.83686	0.199789	0.887179
0	C	0.0815548	0.849656	0.0565525
0	C	0.843793	0.255816	0.947449
0	H	0.0333857	0.812721	0.0939801
0	H	0.892306	0.292438	0.909793
0	H	0.153721	0.808062	0.00975653
0	H	0.771767	0.297689	0.994093
0	H	0.0519741	0.884799	0.0197076
0	H	0.873168	0.220694	0.984443
0	C	0.127759	0.8541	0.16928
0	C	0.79718	0.251293	0.835003
0	H	0.0754418	0.823485	0.214611
0	H	0.849538	0.281793	0.789509
0	H	0.141324	0.891816	0.207214
0	H	0.783433	0.21356	0.797242
0	H	0.197169	0.806812	0.12719
0	H	0.727845	0.298662	0.877085
0	C	0.984911	0.962466	0.181897
0	C	0.939966	0.142809	0.822313
0	H	0.94718	0.994506	0.149713
0	H	0.977765	0.110761	0.854442
0	H	0.98851	0.00859355	0.220385
0	H	0.936125	0.0966767	0.78402
0	H	0.937819	0.92841	0.227641
0	H	0.987124	0.176725	0.77639
0	C	0.173691	0.294035	0.69239
0	C	0.751069	0.811569	0.31225
0	C	0.238577	0.219755	0.643536
0	C	0.686213	0.885847	0.361122
0	C	0.217906	0.1704	0.597083
0	C	0.706958	0.935166	0.407555
0	H	0.270619	0.110883	0.563578
0	H	0.654273	0.994689	0.441083
0	C	0.132426	0.198928	0.596747
0	C	0.792463	0.906581	0.407838
0	H	0.114105	0.162215	0.562376
0	H	0.81084	0.943265	0.442195
0	C	0.981164	0.310821	0.633447
0	C	0.943763	0.794678	0.371006
0	H	0.968011	0.272337	0.596286
0	H	0.956978	0.833143	0.408136
0	C	0.918946	0.388009	0.671577
0	C	0.00595349	0.717492	0.332835
0	C	0.940585	0.435801	0.71913
0	C	0.984252	0.669746	0.285305
0	H	0.891568	0.49715	0.749231
0	H	0.0332633	0.608405	0.255157
0	C	0.0211512	0.406001	0.726867
0	C	0.903627	0.699554	0.277655
0	H	0.0373473	0.443487	0.762414
0	H	0.887382	0.662096	0.242134
0	C	0.0662746	0.278223	0.640017
0	C	0.858585	0.827288	0.364533
0	C	0.0867729	0.325825	0.687689
0	C	0.838013	0.779725	0.3169
0	C	0.197004	0.339726	0.74314
0	C	0.727727	0.765932	0.261495
0	C	0.286401	0.356035	0.702596
0	C	0.638344	0.749601	0.302017
0	C	0.314073	0.403096	0.744356
0	C	0.610726	0.702528	0.26023
0	H	0.385185	0.414459	0.706517
0	H	0.539633	0.691126	0.298037
0	C	0.250929	0.430934	0.830834
0	C	0.673889	0.674717	0.173747
0	H	0.269695	0.466877	0.865347
0	H	0.655151	0.638759	0.139228
0	C	0.0978835	0.43588	0.969758
0	C	0.826991	0.669799	0.0348322
0	H	0.12143	0.470799	0.000566258
0	H	0.803532	0.634832	0.00398695
0	C	0.0127361	0.414726	0.0177614
0	C	0.912108	0.691007	0.986876
0	C	0.986213	0.368151	0.973715
0	C	0.938488	0.737701	0.0309621
0	H	0.91908	0.350722	0.0117802
0	H	0.00555444	0.755226	0.992905
0	C	0.043454	0.34518	0.885799
0	C	0.881195	0.760662	0.118879
0	H	0.0223704	0.309206	0.853295
0	H	0.90215	0.796716	0.151431
0	C	0.159978	0.411672	0.878162
0	C	0.764814	0.694021	0.126424
0	C	0.13266	0.366117	0.834836
0	C	0.792058	0.739616	0.169789
0	C	0.828925	0.426822	0.663944
0	C	0.0959697	0.678591	0.34045
0	C	0.849761	0.496666	0.60857
0	C	0.0749692	0.608839	0.395933
0	H	0.91079	0.473628	0.541995
0	H	0.0139306	0.631982	0.462484
0	H	0.868805	0.540449	0.635039
0	H	0.0558366	0.565085	0.36953
0	H	0.785014	0.531012	0.605625
0	H	0.139654	0.574429	0.398939
0	C	0.7379	0.460252	0.755153
0	C	0.186945	0.645001	0.249251
0	H	0.744348	0.509592	0.786734
0	H	0.180334	0.595706	0.217761
0	H	0.726423	0.412441	0.797379
0	H	0.198574	0.692734	0.206936
0	H	0.671218	0.484132	0.752219
0	H	0.253612	0.620994	0.252185
0	C	0.807548	0.366001	0.620621
0	C	0.117534	0.739368	0.383651
0	H	0.743549	0.395471	0.614909
0	H	0.181343	0.709765	0.389584
0	H	0.790561	0.315426	0.658265
0	H	0.134916	0.789746	0.345784
0	H	0.869199	0.340546	0.554938
0	H	0.05581	0.765107	0.449227
0	C	0.947556	0.43597	0.116521
0	C	0.977419	0.669716	0.888131
0	C	0.974584	0.499334	0.151247
0	C	0.950792	0.606034	0.853396
0	H	0.927707	0.513367	0.221964
0	H	0.997762	0.591977	0.782686
0	H	0.965179	0.556504	0.124164
0	H	0.960426	0.548917	0.880517
0	H	0.0507838	0.4776	0.135745
0	H	0.874609	0.627461	0.868823
0	C	0.839086	0.470857	0.142917
0	C	0.0859017	0.635186	0.861804
0	H	0.828413	0.523821	0.110266
0	H	0.09686	0.581997	0.894087
0	H	0.791401	0.490846	0.212872
0	H	0.133723	0.615625	0.791788
0	H	0.812163	0.426359	0.12708
0	H	0.112405	0.679749	0.878121
0	C	0.962745	0.356885	0.156141
0	C	0.961972	0.748692	0.848428
0	H	0.0404405	0.329548	0.135011
0	H	0.884291	0.775685	0.869338
0	H	0.939351	0.311467	0.137047
0	H	0.984905	0.794392	0.86768
0	H	0.920887	0.36823	0.227036
0	H	0.00406269	0.737332	0.777532
