#******************************************
#
# CIF file created by Zeo++
# Zeo++ is an open source package to
# analyze microporous materials
#
#*******************************************

_cell_length_a		16.0785(0)
_cell_length_b		12.7695(0)
_cell_length_c		23.0297(0)
_cell_angle_alpha		90(0)
_cell_angle_beta		91.1339(0)
_cell_angle_gamma		90(0)

_symmetry_space_group_name_H-M		'P1'
_symmetry_Int_Tables_number		1
_symmetry_cell_setting		Monoclinic

loop_
_symmetry_equiv_pos_as_xyz
'+x,+y,+z'

loop_
_atom_site_label
_atom_site_type_symbol
_atom_site_fract_x
_atom_site_fract_y
_atom_site_fract_z
0	P	0.635357	0.502775	0.769991
0	P	0.828789	0.00505293	0.718591
0	P	0.346568	0.51451	0.221737
0	P	0.152399	0.0117189	0.272792
0	O	0.56729	0.467382	0.7155
0	O	0.897731	0.967396	0.771967
0	O	0.41458	0.549837	0.276267
0	O	0.0834687	0.0495031	0.219429
0	O	0.686609	0.584409	0.81915
0	O	0.776613	0.0881267	0.670426
0	O	0.295377	0.432834	0.172533
0	O	0.204609	0.928608	0.320954
0	O	0.556604	0.514576	0.816393
0	O	0.906571	0.0179112	0.671546
0	O	0.425319	0.502846	0.17533
0	O	0.0746372	0.998856	0.319836
0	O	0.673452	0.592839	0.723228
0	O	0.792191	0.0939409	0.766481
0	O	0.30836	0.424405	0.268421
0	O	0.188983	0.922838	0.224897
0	N	0.691881	0.389436	0.779676
0	N	0.771736	0.892329	0.708331
0	N	0.290014	0.627818	0.212046
0	N	0.209487	0.124452	0.283086
0	C	0.554609	0.366076	0.698031
0	C	0.908704	0.865937	0.789725
0	C	0.427223	0.651199	0.293696
0	C	0.0726368	0.150964	0.201636
0	C	0.476565	0.34418	0.671388
0	C	0.986169	0.843524	0.817005
0	C	0.505307	0.6732	0.320281
0	C	0.995185	0.173542	0.174384
0	C	0.462148	0.24206	0.651778
0	C	0.999862	0.741376	0.836704
0	C	0.519644	0.775302	0.339929
0	C	0.981688	0.275701	0.154622
0	H	0.402167	0.223038	0.631718
0	H	0.0592755	0.721795	0.857411
0	H	0.579641	0.794408	0.359944
0	H	0.922283	0.295364	0.133923
0	C	0.523468	0.164147	0.657454
0	C	0.938434	0.663811	0.830142
0	C	0.458213	0.853105	0.334352
0	C	0.0432165	0.35314	0.161119
0	C	0.600669	0.188509	0.683284
0	C	0.861525	0.688949	0.804125
0	C	0.38101	0.828674	0.308545
0	C	0.120122	0.327829	0.187159
0	H	0.649147	0.128671	0.687615
0	H	0.812744	0.629533	0.799529
0	H	0.332475	0.88842	0.304259
0	H	0.169004	0.387158	0.191727
0	C	0.61733	0.290071	0.7031
0	C	0.845483	0.790746	0.784368
0	C	0.364427	0.727129	0.28869
0	C	0.135973	0.226038	0.20695
0	C	0.701175	0.319208	0.728194
0	C	0.761946	0.821013	0.759229
0	C	0.280607	0.697936	0.263566
0	C	0.219456	0.195635	0.232143
0	H	0.735629	0.246321	0.742302
0	H	0.72716	0.748769	0.744637
0	H	0.24611	0.77079	0.249478
0	H	0.254378	0.267841	0.246697
0	H	0.740236	0.356483	0.69379
0	H	0.723084	0.858011	0.793915
0	H	0.241539	0.660567	0.297914
0	H	0.258279	0.158429	0.197473
0	C	0.767022	0.387655	0.819012
0	C	0.697172	0.89256	0.668494
0	C	0.21496	0.629641	0.172647
0	C	0.283998	0.124269	0.322981
0	H	0.780259	0.303294	0.829144
0	H	0.682203	0.808593	0.65838
0	H	0.20182	0.714028	0.162478
0	H	0.298883	0.208269	0.333128
0	H	0.823465	0.418506	0.796926
0	H	0.641094	0.925623	0.689832
0	H	0.158442	0.598914	0.194702
0	H	0.340127	0.0912918	0.30166
0	C	0.753729	0.447373	0.874259
0	C	0.713891	0.951418	0.613438
0	C	0.228197	0.569811	0.117434
0	C	0.267255	0.0653012	0.377991
0	C	0.786257	0.412788	0.927837
0	C	0.686835	0.914596	0.559049
0	C	0.195542	0.604318	0.0638644
0	C	0.294326	0.102064	0.432398
0	H	0.821155	0.339525	0.930023
0	H	0.652043	0.841262	0.556109
0	H	0.160713	0.677649	0.0616669
0	H	0.32907	0.175465	0.435369
0	C	0.773963	0.472254	0.977985
0	C	0.704979	0.971408	0.508849
0	C	0.20754	0.544652	0.013756
0	C	0.276304	0.0451063	0.482562
0	C	0.725666	0.564327	0.97532
0	C	0.752293	0.0638429	0.512743
0	C	0.255624	0.452419	0.0164383
0	C	0.229069	0.952603	0.478617
0	H	0.714006	0.607592	0.0152897
0	H	0.768747	0.105371	0.473035
0	H	0.266977	0.408921	0.976506
0	H	0.212722	0.910959	0.518309
0	C	0.692095	0.600132	0.922658
0	C	0.779892	0.102519	0.56649
0	C	0.289372	0.416709	0.0690814
0	C	0.201448	0.91402	0.424873
0	C	0.709246	0.541675	0.872019
0	C	0.758023	0.0458124	0.616679
0	C	0.272557	0.475434	0.119685
0	C	0.223204	0.970866	0.374703
0	C	0.475173	0.535808	0.799369
0	C	0.988255	0.0379896	0.688214
0	C	0.506724	0.481408	0.192323
0	C	0.992952	0.978804	0.303171
0	C	0.413007	0.469442	0.821537
0	C	0.0496712	0.971094	0.665682
0	C	0.568953	0.547679	0.170138
0	C	0.931532	0.0456947	0.325703
0	C	0.330597	0.491701	0.804666
0	C	0.132255	0.992169	0.682391
0	C	0.651334	0.525338	0.187011
0	C	0.84895	0.0246631	0.308991
0	H	0.281486	0.439201	0.818812
0	H	0.180959	0.939447	0.667683
0	H	0.700478	0.57781	0.172891
0	H	0.80025	0.0773615	0.323699
0	C	0.30907	0.578109	0.770028
0	C	0.154565	0.0774534	0.717515
0	C	0.672803	0.438816	0.221593
0	C	0.826661	0.939387	0.273861
0	C	0.3724	0.646013	0.752596
0	C	0.0920815	0.146172	0.735292
0	C	0.609414	0.370955	0.238979
0	C	0.889123	0.870652	0.256079
0	H	0.356416	0.715254	0.727037
0	H	0.108647	0.214604	0.76129
0	H	0.62536	0.301605	0.264445
0	H	0.872539	0.802224	0.230073
0	C	0.45589	0.62723	0.767256
0	C	0.00843173	0.128859	0.720559
0	C	0.525964	0.389881	0.224376
0	C	0.97278	0.887948	0.270827
0	C	0.523146	0.703113	0.748979
0	C	0.941905	0.204929	0.739859
0	C	0.458629	0.314071	0.242602
0	C	0.0392608	0.811837	0.251533
0	H	0.578649	0.693901	0.779445
0	H	0.88584	0.19709	0.70983
0	H	0.40313	0.323393	0.212136
0	H	0.095353	0.819652	0.281565
0	C	0.548878	0.679329	0.687315
0	C	0.917629	0.179249	0.801638
0	C	0.43289	0.337723	0.304272
0	C	0.0635566	0.837501	0.189751
0	C	0.498862	0.708834	0.64001
0	C	0.969146	0.206912	0.848538
0	C	0.482883	0.308115	0.351578
0	C	0.0120355	0.80981	0.142856
0	H	0.439812	0.747947	0.647671
0	H	0.0276455	0.246858	0.840353
0	H	0.541942	0.269059	0.343902
0	H	0.953546	0.769859	0.151042
0	C	0.522375	0.687873	0.582678
0	C	0.947688	0.183257	0.90597
0	C	0.459296	0.32888	0.408906
0	C	0.0335046	0.833434	0.0854159
0	C	0.599865	0.642088	0.573666
0	C	0.87018	0.137939	0.915627
0	C	0.381732	0.374493	0.417937
0	C	0.110977	0.878778	0.0757502
0	H	0.62044	0.6282	0.529368
0	H	0.850806	0.123446	0.960091
0	H	0.361083	0.38815	0.462239
0	H	0.130353	0.893273	0.0312883
0	C	0.653412	0.611232	0.61976
0	C	0.815254	0.108667	0.86998
0	C	0.328237	0.405448	0.37185
0	C	0.16591	0.908112	0.121397
0	C	0.623818	0.625117	0.676236
0	C	0.843093	0.124529	0.813199
0	C	0.357915	0.391837	0.315383
0	C	0.138073	0.892255	0.178185
0	C	0.433753	0.378501	0.862941
0	C	0.0282461	0.880928	0.623924
0	C	0.548252	0.638464	0.128645
0	C	0.952968	0.135846	0.367498
0	C	0.219267	0.600211	0.749979
0	C	0.244541	0.0976274	0.737725
0	C	0.762575	0.416555	0.241623
0	C	0.736677	0.91923	0.253668
0	C	0.462204	0.71655	0.532719
0	C	0.0102594	0.208648	0.955054
0	C	0.519432	0.300099	0.458872
0	C	0.970951	0.808002	0.0363428
0	C	0.738403	0.566127	0.603927
0	C	0.730557	0.0636073	0.886498
0	C	0.243154	0.450355	0.387646
0	C	0.250562	0.953255	0.104856
0	C	0.412617	0.427769	0.664221
0	C	0.0498799	0.927376	0.824336
0	C	0.569333	0.589664	0.327324
0	C	0.931335	0.0898662	0.167128
0	H	0.381229	0.42477	0.62162
0	H	0.0826522	0.923187	0.866379
0	H	0.601075	0.592885	0.369792
0	H	0.898845	0.0937893	0.124974
0	H	0.440576	0.506603	0.668885
0	H	0.0212175	0.00601422	0.820953
0	H	0.541374	0.510791	0.322874
0	H	0.959779	0.011128	0.170811
0	H	0.36528	0.421977	0.697951
0	H	0.0960162	0.923655	0.789694
0	H	0.616365	0.595339	0.293377
0	H	0.884984	0.0940967	0.201602
0	C	0.50643	0.0558157	0.635582
0	C	0.955007	0.554763	0.851157
0	C	0.475204	0.961404	0.356277
0	C	0.026872	0.462172	0.140043
0	H	0.557395	0.0276994	0.608272
0	H	0.906367	0.528553	0.881034
0	H	0.423772	0.990002	0.382998
0	H	0.0752809	0.487901	0.10988
0	H	0.448977	0.0514975	0.608857
0	H	0.0146655	0.547847	0.874657
0	H	0.532121	0.965457	0.383614
0	H	0.96701	0.469366	0.11686
0	H	0.500294	0.000398453	0.671627
0	H	0.955712	0.498958	0.814827
0	H	0.482374	0.0166027	0.320237
0	H	0.0268025	0.518146	0.176286
0	C	0.813182	0.439696	0.034617
0	C	0.67418	0.933194	0.450911
0	C	0.168157	0.577093	0.957151
0	C	0.307166	0.0831852	0.540515
0	H	0.769581	0.447025	0.0706544
0	H	0.721855	0.941018	0.417546
0	H	0.21163	0.569648	0.921055
0	H	0.25906	0.0767359	0.57366
0	H	0.867521	0.489163	0.0450078
0	H	0.618837	0.977671	0.43608
0	H	0.11378	0.527624	0.94689
0	H	0.361699	0.0375667	0.555675
0	H	0.834888	0.358084	0.0344004
0	H	0.656045	0.850241	0.451905
0	H	0.146465	0.658702	0.957342
0	H	0.326507	0.165687	0.539397
0	C	0.639403	0.695719	0.91742
0	C	0.832102	0.198381	0.572714
0	C	0.341757	0.320881	0.0743117
0	C	0.149359	0.818071	0.418624
0	H	0.667658	0.752745	0.8878
0	H	0.803043	0.255322	0.601963
0	H	0.312885	0.263533	0.103433
0	H	0.178071	0.761632	0.388917
0	H	0.628676	0.73441	0.958988
0	H	0.843895	0.23726	0.531324
0	H	0.353057	0.282745	0.0326628
0	H	0.138286	0.778564	0.459944
0	H	0.578233	0.675344	0.897819
0	H	0.892813	0.178025	0.593026
0	H	0.402681	0.340741	0.0944613
0	H	0.0883134	0.838487	0.398857
0	C	0.496718	0.81805	0.755542
0	C	0.968308	0.320214	0.734596
0	C	0.484941	0.199094	0.235967
0	C	0.0128293	0.696563	0.256804
0	H	0.478449	0.83421	0.800292
0	H	0.98534	0.338883	0.689952
0	H	0.503204	0.183004	0.191204
0	H	0.995696	0.67794	0.301433
0	H	0.443804	0.838675	0.727068
0	H	0.0217735	0.339596	0.76278
0	H	0.537838	0.178316	0.26444
0	H	0.959399	0.677191	0.228579
0	H	0.548244	0.870654	0.745175
0	H	0.916905	0.372301	0.746539
0	H	0.433368	0.146544	0.246288
0	H	0.0642053	0.644431	0.244922
0	C	0.482177	0.420684	0.91645
0	C	0.979926	0.924845	0.570843
0	C	0.499812	0.596129	0.0751907
0	C	0.00126212	0.0918482	0.420569
0	H	0.499366	0.357189	0.946235
0	H	0.962924	0.862493	0.540157
0	H	0.482854	0.65947	0.0452099
0	H	0.0183602	0.154181	0.451251
0	H	0.445724	0.477767	0.940592
0	H	0.0164669	0.982969	0.547486
0	H	0.53612	0.538666	0.0512147
0	H	0.964658	0.0337962	0.443934
0	H	0.540277	0.459561	0.904072
0	H	0.921774	0.963067	0.583515
0	H	0.441547	0.557616	0.0875892
0	H	0.0593604	0.0534899	0.40789
0	C	0.486271	0.296632	0.831059
0	C	0.975782	0.798302	0.655249
0	C	0.495749	0.72049	0.160434
0	C	0.0054757	0.218439	0.336185
0	H	0.488254	0.221789	0.854085
0	H	0.974201	0.723748	0.631718
0	H	0.493716	0.79523	0.137284
0	H	0.007039	0.293011	0.359706
0	H	0.551186	0.322224	0.827499
0	H	0.910848	0.823154	0.658972
0	H	0.430842	0.694908	0.164074
0	H	0.0704132	0.193568	0.332499
0	H	0.462461	0.282206	0.786901
0	H	0.999753	0.782835	0.699244
0	H	0.519614	0.735155	0.204553
0	H	0.981562	0.233879	0.292172
0	C	0.354284	0.324537	0.885155
0	C	0.107124	0.826295	0.601082
0	C	0.627721	0.692309	0.106347
0	C	0.874093	0.190467	0.390328
0	H	0.370609	0.258977	0.913874
0	H	0.0899004	0.761482	0.571966
0	H	0.611409	0.757799	0.0775696
0	H	0.891307	0.255266	0.41945
0	H	0.316108	0.292855	0.849388
0	H	0.145164	0.793147	0.636538
0	H	0.665958	0.724041	0.142063
0	H	0.836072	0.22361	0.354867
0	H	0.316242	0.378767	0.910554
0	H	0.14571	0.880257	0.575878
0	H	0.665678	0.63796	0.0809618
0	H	0.835492	0.136494	0.41551
0	C	0.212924	0.582126	0.683768
0	C	0.250787	0.078487	0.803826
0	C	0.768929	0.434532	0.307849
0	C	0.730397	0.938433	0.187575
0	H	0.149969	0.598329	0.667057
0	H	0.313831	0.0939153	0.820691
0	H	0.83188	0.418297	0.324558
0	H	0.667258	0.923435	0.170759
0	H	0.227995	0.501025	0.672652
0	H	0.235296	0.997352	0.814592
0	H	0.753843	0.51561	0.319009
0	H	0.746226	0.0194568	0.176799
0	H	0.255736	0.632495	0.660222
0	H	0.208244	0.128846	0.827628
0	H	0.726107	0.384112	0.331352
0	H	0.772674	0.887778	0.163724
0	C	0.155869	0.528077	0.77959
0	C	0.306881	0.0246838	0.707708
0	C	0.826048	0.488628	0.212038
0	C	0.67432	0.992114	0.283727
0	H	0.158806	0.53642	0.826903
0	H	0.303724	0.0336626	0.660387
0	H	0.823024	0.480455	0.164718
0	H	0.677545	0.983113	0.331045
0	H	0.166012	0.445634	0.768823
0	H	0.295815	0.942457	0.718123
0	H	0.816052	0.57106	0.222906
0	H	0.68534	0.0743353	0.273302
0	H	0.092138	0.54787	0.765565
0	H	0.371028	0.0430411	0.721574
0	H	0.88977	0.468622	0.225992
0	H	0.610176	0.973697	0.269902
0	C	0.196497	0.714585	0.764258
0	C	0.268645	0.211782	0.723976
0	C	0.785239	0.302163	0.227299
0	C	0.71259	0.805049	0.267369
0	H	0.206666	0.731323	0.810459
0	H	0.25913	0.22917	0.677778
0	H	0.77534	0.285628	0.181051
0	H	0.722297	0.787514	0.313534
0	H	0.13079	0.730671	0.75389
0	H	0.33443	0.226839	0.734793
0	H	0.850856	0.285862	0.237853
0	H	0.646754	0.790061	0.25668
0	H	0.233318	0.770649	0.739771
0	H	0.23204	0.268229	0.748439
0	H	0.748154	0.246113	0.251593
0	H	0.749046	0.748626	0.242777
0	C	0.456455	0.836906	0.528662
0	C	0.0173816	0.328757	0.960203
0	C	0.525103	0.179731	0.462875
0	C	0.963856	0.687892	0.0312037
0	H	0.435315	0.87149	0.569185
0	H	0.0367586	0.364526	0.91949
0	H	0.54617	0.145194	0.422319
0	H	0.944397	0.652131	0.0718944
0	H	0.412622	0.860809	0.494005
0	H	0.0628111	0.351046	0.994073
0	H	0.56897	0.155721	0.497494
0	H	0.91849	0.665589	0.997299
0	H	0.516909	0.871615	0.519002
0	H	0.957654	0.363558	0.97142
0	H	0.464637	0.145074	0.472549
0	H	0.0236022	0.653084	0.0200437
0	C	0.375808	0.670103	0.545589
0	C	0.0951173	0.160025	0.939911
0	C	0.605857	0.346484	0.446031
0	C	0.886069	0.856593	0.0514675
0	H	0.348196	0.705714	0.583837
0	H	0.121952	0.19572	0.901439
0	H	0.633388	0.311013	0.407713
0	H	0.859094	0.820631	0.0898105
0	H	0.380073	0.585626	0.553459
0	H	0.0886667	0.075916	0.931295
0	H	0.601662	0.430999	0.438276
0	H	0.892546	0.94064	0.0602777
0	H	0.332384	0.682633	0.508945
0	H	0.140313	0.169483	0.9758
0	H	0.649308	0.33371	0.482635
0	H	0.840972	0.847429	0.0154957
0	C	0.490319	0.672886	0.474019
0	C	0.984496	0.163505	0.0139881
0	C	0.491301	0.343731	0.517574
0	C	0.996702	0.853118	0.977397
0	H	0.44613	0.693917	0.438865
0	H	0.0304979	0.18355	0.0481947
0	H	0.535424	0.322552	0.552741
0	H	0.950615	0.833239	0.943211
0	H	0.494262	0.587166	0.474338
0	H	0.980549	0.0777953	0.0128935
0	H	0.487462	0.429459	0.517288
0	H	0.000812676	0.938829	0.978509
0	H	0.550772	0.703994	0.461497
0	H	0.924926	0.194561	0.0280501
0	H	0.430787	0.312739	0.530036
0	H	0.0561901	0.821881	0.963269
0	C	0.781742	0.644849	0.563413
0	C	0.687462	0.143508	0.926378
0	C	0.199893	0.371576	0.428162
0	C	0.293745	0.873348	0.0650298
0	H	0.790703	0.720844	0.58511
0	H	0.677706	0.21859	0.903974
0	H	0.191112	0.295516	0.406505
0	H	0.303585	0.798321	0.087476
0	H	0.746139	0.658993	0.523187
0	H	0.723629	0.159379	0.966084
0	H	0.235455	0.357616	0.468424
0	H	0.257613	0.857332	0.0253272
0	H	0.843255	0.616705	0.55112
0	H	0.626384	0.115313	0.939479
0	H	0.138291	0.399545	0.440379
0	H	0.354799	0.901632	0.0519118
0	C	0.796919	0.547555	0.656539
0	C	0.671684	0.0430411	0.834324
0	C	0.184674	0.468697	0.33499
0	C	0.309445	0.974029	0.157004
0	H	0.798321	0.615875	0.685742
0	H	0.669624	0.110217	0.804293
0	H	0.183391	0.400298	0.305836
0	H	0.311611	0.906892	0.187052
0	H	0.860867	0.533443	0.643103
0	H	0.607885	0.0290581	0.848107
0	H	0.120679	0.482718	0.348368
0	H	0.373212	0.988149	0.143186
0	H	0.777711	0.479363	0.681946
0	H	0.690796	0.97403	0.80959
0	H	0.203828	0.536831	0.309515
0	H	0.290243	0.0430322	0.181713
0	C	0.72375	0.461077	0.572233
0	C	0.745176	0.959688	0.919211
0	C	0.257619	0.55548	0.419307
0	C	0.235805	0.0570634	0.0720578
0	H	0.68826	0.406783	0.599166
0	H	0.779685	0.903907	0.892564
0	H	0.292913	0.609886	0.392323
0	H	0.20102	0.112736	0.0986032
0	H	0.782583	0.423379	0.561508
0	H	0.686186	0.923134	0.930736
0	H	0.198714	0.592941	0.430076
0	H	0.29474	0.0938607	0.0606103
0	H	0.688095	0.471342	0.531614
0	H	0.781415	0.970884	0.959446
0	H	0.293382	0.545365	0.459889
0	H	0.199753	0.0456374	0.0317595
