#******************************************
#
# CIF file created by Zeo++
# Zeo++ is an open source package to
# analyze microporous materials
#
#*******************************************

_cell_length_a		10.8116(0)
_cell_length_b		15.6735(0)
_cell_length_c		14.4646(0)
_cell_angle_alpha		90(0)
_cell_angle_beta		86.4204(0)
_cell_angle_gamma		90(0)

_symmetry_space_group_name_H-M		'P1'
_symmetry_Int_Tables_number		1
_symmetry_cell_setting		Monoclinic

loop_
_symmetry_equiv_pos_as_xyz
'+x,+y,+z'

loop_
_atom_site_label
_atom_site_type_symbol
_atom_site_fract_x
_atom_site_fract_y
_atom_site_fract_z
0	O	0.435818	0.407294	0.236999
0	O	0.601693	0.92384	0.788838
0	N	0.520365	0.413553	0.476872
0	N	0.51448	0.926961	0.550406
0	N	0.169321	0.398434	0.163894
0	N	0.862862	0.910178	0.866582
0	O	0.756863	0.420306	0.924979
0	O	0.273059	0.933174	0.106602
0	O	0.789419	0.394128	0.558327
0	O	0.241363	0.912136	0.471288
0	N	0.483147	0.295551	0.33006
0	N	0.54768	0.810762	0.699546
0	O	0.0943831	0.430337	0.924276
0	O	0.928449	0.938578	0.109453
0	O	0.559983	0.220385	0.527874
0	O	0.466979	0.737625	0.503695
0	O	0.287578	0.21483	0.155138
0	O	0.747087	0.727391	0.870807
0	O	0.316308	0.377403	0.489753
0	O	0.718134	0.887827	0.539722
0	O	0.658053	0.424423	0.789143
0	O	0.369223	0.943018	0.243143
0	N	0.814157	0.287188	0.663217
0	N	0.21443	0.805102	0.367107
0	N	0.179704	0.314255	0.989996
0	N	0.852378	0.821776	0.0390232
0	N	0.229936	0.272787	0.296391
0	N	0.802581	0.788306	0.730861
0	N	0.874089	0.416452	0.792079
0	N	0.153559	0.934204	0.238826
0	O	0.967968	0.352252	0.171721
0	O	0.0651319	0.865712	0.8562
0	C	0.429494	0.355067	0.6286
0	C	0.604592	0.866489	0.400544
0	C	0.161047	0.453078	0.0803489
0	C	0.869052	0.962731	0.951871
0	N	0.554246	0.319389	0.644495
0	N	0.477308	0.834785	0.385302
0	C	0.452223	0.227922	0.262375
0	C	0.580617	0.742737	0.765974
0	C	0.511822	0.448125	0.382655
0	C	0.517958	0.961935	0.644747
0	C	0.474591	0.381664	0.31052
0	C	0.559018	0.897095	0.717217
0	C	0.416412	0.381363	0.525414
0	C	0.618502	0.893156	0.503625
0	C	0.908111	0.430211	0.69162
0	C	0.119989	0.948324	0.339258
0	C	0.0982405	0.283153	0.277244
0	C	0.934332	0.797318	0.750312
0	C	0.830751	0.369662	0.630929
0	C	0.19828	0.887723	0.399277
0	C	0.0722984	0.347784	0.199781
0	C	0.960579	0.861271	0.828556
0	O	0.96578	0.256004	0.827473
0	O	0.0620745	0.76644	0.202385
0	C	0.316468	0.238913	0.231694
0	C	0.716992	0.753038	0.795095
0	C	0.609965	0.254321	0.592683
0	C	0.418406	0.771664	0.438347
0	C	0.642752	0.440495	0.985279
0	C	0.38941	0.95091	0.0476635
0	O	0.962232	0.22336	0.979958
0	O	0.0644636	0.721641	0.0536538
0	C	0.634821	0.492441	0.347947
0	C	0.3902	0.000882306	0.677356
0	C	0.137622	0.398301	0.992601
0	C	0.890098	0.906674	0.0392583
0	C	0.159443	0.262209	0.907337
0	C	0.868521	0.76841	0.121425
0	C	0.754045	0.42171	0.830487
0	C	0.273956	0.938137	0.200963
0	C	0.229522	0.175851	0.909801
0	C	0.798162	0.68229	0.115653
0	C	0.739372	0.222456	0.617614
0	C	0.288613	0.740549	0.413449
0	C	0.0451967	0.407809	0.674034
0	C	0.982894	0.926243	0.357605
0	H	0.104855	0.450581	0.711971
0	H	0.922896	0.969698	0.320782
0	H	0.075217	0.412991	0.600088
0	H	0.953831	0.930501	0.431803
0	H	0.0653475	0.342305	0.696518
0	H	0.961648	0.86124	0.334347
0	C	0.45857	0.140788	0.30921
0	C	0.572563	0.655971	0.718147
0	H	0.550973	0.127996	0.333841
0	H	0.477971	0.642307	0.698493
0	H	0.438296	0.0885265	0.260983
0	H	0.599199	0.603796	0.763933
0	H	0.392094	0.134595	0.369578
0	H	0.63311	0.652065	0.654343
0	C	0.0517566	0.398705	0.39983
0	C	0.989113	0.912341	0.62852
0	H	0.984726	0.419359	0.455776
0	H	0.0573275	0.93076	0.572266
0	H	0.0509194	0.446874	0.345062
0	H	0.995863	0.95956	0.683804
0	H	0.144188	0.400006	0.427824
0	H	0.896465	0.917978	0.601538
0	C	0.287032	0.496327	0.0605253
0	C	0.742966	0.00626362	0.970758
0	H	0.312907	0.535541	0.119233
0	H	0.720635	0.0487145	0.913437
0	H	0.286229	0.537213	0.999012
0	H	0.741774	0.0445077	0.0343687
0	H	0.362072	0.44875	0.0477686
0	H	0.666789	0.959206	0.97929
0	C	0.598265	0.528497	0.957788
0	C	0.435913	0.0385822	0.0741325
0	H	0.675483	0.574452	0.950516
0	H	0.359184	0.0850095	0.0838387
0	H	0.530032	0.554101	0.00954075
0	H	0.501549	0.0642479	0.020628
0	H	0.556237	0.526929	0.890519
0	H	0.481095	0.0368792	0.14028
0	C	0.742687	0.429576	0.338229
0	C	0.291282	0.932227	0.694659
0	H	0.76899	0.405768	0.40608
0	H	0.270122	0.899485	0.630073
0	H	0.826016	0.459386	0.305126
0	H	0.203469	0.959645	0.723278
0	H	0.722282	0.374002	0.295797
0	H	0.317471	0.883681	0.744281
0	C	0.0200164	0.247423	0.898057
0	C	0.00736232	0.752903	0.132973
0	C	0.330529	0.287656	0.652621
0	C	0.698923	0.79593	0.376772
0	H	0.345704	0.23108	0.608057
0	H	0.677556	0.738588	0.418763
0	H	0.237608	0.311727	0.639937
0	H	0.792749	0.816098	0.392555
0	H	0.331028	0.267209	0.725026
0	H	0.700323	0.778137	0.303471
0	C	0.368549	0.190877	0.916418
0	C	0.660263	0.697829	0.104071
0	H	0.405533	0.238086	0.866119
0	H	0.620666	0.745345	0.152947
0	H	0.421312	0.13167	0.904083
0	H	0.606428	0.638915	0.114787
0	H	0.388404	0.213897	0.985888
0	H	0.645234	0.720692	0.0335959
0	C	0.663779	0.566057	0.412745
0	C	0.349088	0.0662338	0.606821
0	H	0.69609	0.542783	0.478783
0	H	0.315744	0.0350299	0.544727
0	H	0.582862	0.606859	0.429615
0	H	0.424154	0.110017	0.583156
0	H	0.737894	0.60656	0.381413
0	H	0.271613	0.104745	0.63636
0	C	0.880166	0.522386	0.664984
0	C	0.148297	0.0404073	0.365816
0	H	0.781344	0.537465	0.678546
0	H	0.24706	0.055717	0.351702
0	H	0.902053	0.533309	0.590751
0	H	0.12719	0.0513154	0.440152
0	H	0.933301	0.567914	0.704216
0	H	0.0949646	0.0860831	0.326855
0	C	0.547306	0.370813	0.972404
0	C	0.482031	0.880014	0.0636466
0	H	0.523424	0.366318	0.899753
0	H	0.50278	0.876111	0.137003
0	H	0.46036	0.384121	0.0143352
0	H	0.570714	0.891925	0.0234761
0	H	0.579653	0.307899	0.993027
0	H	0.448121	0.817432	0.04321
0	C	0.411525	0.436359	0.686716
0	C	0.628572	0.946688	0.341748
0	H	0.417457	0.423334	0.761105
0	H	0.619372	0.93419	0.267656
0	H	0.320851	0.465533	0.677701
0	H	0.722403	0.971496	0.349135
0	H	0.483094	0.484532	0.668664
0	H	0.562699	0.998159	0.361134
0	C	0.204566	0.124486	0.823144
0	C	0.81727	0.629831	0.202674
0	H	0.105384	0.116316	0.813247
0	H	0.915375	0.619719	0.214594
0	H	0.243611	0.0597028	0.827736
0	H	0.775872	0.56591	0.196733
0	H	0.246506	0.154163	0.759952
0	H	0.773762	0.659657	0.265315
0	C	0.541598	0.234611	0.176365
0	C	0.494497	0.748346	0.853873
0	H	0.539846	0.299398	0.146737
0	H	0.499528	0.812187	0.885447
0	H	0.51577	0.190298	0.122109
0	H	0.521357	0.701789	0.905745
0	H	0.637203	0.221059	0.192818
0	H	0.39769	0.736755	0.839285
0	C	0.694982	0.438331	0.0805696
0	C	0.340392	0.9477	0.951396
0	H	0.757334	0.383487	0.0887291
0	H	0.273333	0.895452	0.944423
0	H	0.619917	0.434172	0.135458
0	H	0.416295	0.938846	0.89791
0	H	0.750962	0.495083	0.0938227
0	H	0.290229	0.00614297	0.934614
0	C	0.725668	0.140086	0.677656
0	C	0.304432	0.657533	0.354438
0	H	0.677144	0.0915036	0.634539
0	H	0.354331	0.610802	0.398059
0	C	0.0554911	0.517536	0.0932496
0	C	0.974676	0.0272681	0.942561
0	H	0.966024	0.484498	0.107116
0	H	0.065033	0.994843	0.931785
0	H	0.0467306	0.556095	0.0302933
0	H	0.979141	0.0659298	0.00593407
0	H	0.0688006	0.561576	0.150498
0	H	0.964705	0.0710536	0.884423
0	C	0.017674	0.310066	0.36546
0	C	0.0155103	0.822011	0.661699
0	C	0.645968	0.153678	0.767526
0	C	0.383609	0.672051	0.2644
0	H	0.64272	0.0948949	0.809462
0	H	0.388631	0.613784	0.222216
0	H	0.55009	0.169974	0.754014
0	H	0.479136	0.689571	0.27786
0	H	0.681651	0.204919	0.810062
0	H	0.346642	0.72307	0.222163
0	C	0.0238335	0.243747	0.442511
0	C	0.00146689	0.757261	0.583919
0	H	0.117338	0.237986	0.467267
0	H	0.908991	0.759827	0.556613
0	H	0.99483	0.180571	0.419972
0	H	0.0174226	0.691892	0.606803
0	H	0.962457	0.262204	0.502577
0	H	0.0681828	0.770875	0.525397
0	C	0.827271	0.223883	0.985978
0	C	0.199279	0.718049	0.048807
0	H	0.796289	0.290802	0.983653
0	H	0.235855	0.782511	0.0596431
0	H	0.805318	0.195112	0.0540394
0	H	0.220784	0.695948	0.977711
0	H	0.792269	0.186668	0.929222
0	H	0.229393	0.673144	0.100738
0	C	0.852973	0.104355	0.69744
0	C	0.17836	0.619294	0.335306
0	H	0.911896	0.0949899	0.633825
0	H	0.120457	0.608827	0.399193
0	H	0.843696	0.0421332	0.732344
0	H	0.189622	0.557185	0.300534
0	H	0.903473	0.146412	0.743001
0	H	0.125729	0.660376	0.290139
0	H	0.192576	0.299923	0.843923
0	H	0.833317	0.805211	0.184915
0	H	0.255623	0.395616	0.190925
0	H	0.776967	0.908304	0.838702
0	H	0.788945	0.205471	0.54887
0	H	0.238275	0.724135	0.482135
0	H	0.193401	0.139534	0.972725
0	H	0.837992	0.646354	0.0536026
0	H	0.601547	0.350444	0.695444
0	H	0.430292	0.867013	0.335214
0	H	0.607493	0.411156	0.50239
0	H	0.428694	0.926683	0.522408
0	H	0.0640309	0.21983	0.251444
0	H	0.966891	0.733634	0.776463
0	H	0.618131	0.519046	0.277708
0	H	0.404965	0.0342992	0.74441
0	H	0.434545	0.497222	0.384965
0	H	0.590785	0.0147988	0.643118
0	H	0.256699	0.299942	0.356941
0	H	0.775957	0.816262	0.670649
0	H	0.919659	0.312244	0.343439
0	H	0.113891	0.819428	0.682704
0	H	0.94652	0.413045	0.836087
0	H	0.0813139	0.927912	0.195085
0	H	0.200039	0.281142	0.0490797
0	H	0.83448	0.789804	0.978775
0	H	0.513496	0.274446	0.39261
0	H	0.513911	0.789793	0.638011
0	H	0.853935	0.268145	0.723339
0	H	0.173665	0.785529	0.307718
