#******************************************
#
# CIF file created by Zeo++
# Zeo++ is an open source package to
# analyze microporous materials
#
#*******************************************

_cell_length_a		27.219(0)
_cell_length_b		27.1874(0)
_cell_length_c		8.44014(0)
_cell_angle_alpha		90(0)
_cell_angle_beta		90(0)
_cell_angle_gamma		90(0)

_symmetry_space_group_name_H-M		'P1'
_symmetry_Int_Tables_number		1
_symmetry_cell_setting		Monoclinic

loop_
_symmetry_equiv_pos_as_xyz
'+x,+y,+z'

loop_
_atom_site_label
_atom_site_type_symbol
_atom_site_fract_x
_atom_site_fract_y
_atom_site_fract_z
0	O	0.800032	0.750411	0.802451
0	O	0.200331	0.251325	0.810064
0	O	0.251042	0.799451	0.779417
0	O	0.749034	0.201051	0.796279
0	O	0.302618	0.251236	0.310003
0	O	0.697779	0.750661	0.302377
0	O	0.749997	0.302749	0.296169
0	O	0.250621	0.699537	0.2795
0	O	0.823816	0.682313	0.656651
0	O	0.175923	0.318895	0.662968
0	O	0.319192	0.824656	0.637933
0	O	0.680776	0.176836	0.652494
0	O	0.325791	0.183258	0.162614
0	O	0.67421	0.81867	0.155717
0	O	0.818402	0.326048	0.151717
0	O	0.182119	0.675415	0.137237
0	C	0.841821	0.724086	0.7525
0	C	0.158309	0.277382	0.760574
0	C	0.276672	0.841894	0.731595
0	C	0.722911	0.159055	0.747
0	C	0.34418	0.224689	0.259179
0	C	0.656049	0.776905	0.251295
0	C	0.776371	0.34443	0.245435
0	C	0.224555	0.657525	0.23011
0	C	0.867479	0.702394	0.899334
0	C	0.132946	0.299453	0.907398
0	C	0.297119	0.86774	0.880075
0	C	0.70183	0.133193	0.894439
0	C	0.369728	0.202483	0.405398
0	C	0.630073	0.79866	0.397459
0	C	0.797586	0.370659	0.392027
0	C	0.203947	0.631345	0.377726
0	C	0.859699	0.648087	0.881591
0	C	0.140565	0.353727	0.88785
0	C	0.351573	0.860978	0.864972
0	C	0.647477	0.140494	0.878124
0	C	0.361568	0.148278	0.386617
0	C	0.638272	0.852925	0.38056
0	C	0.851876	0.362747	0.376507
0	C	0.149549	0.638741	0.363474
0	C	0.872387	0.609419	0.980376
0	C	0.12787	0.392681	0.985467
0	C	0.389514	0.874399	0.965485
0	C	0.609202	0.127335	0.977693
0	C	0.374152	0.109276	0.484188
0	C	0.625746	0.891582	0.479592
0	C	0.890207	0.375721	0.476126
0	C	0.111582	0.625487	0.464124
0	C	0.860288	0.561168	0.933774
0	C	0.139645	0.440826	0.9368
0	C	0.438098	0.862977	0.921362
0	C	0.560804	0.139086	0.932372
0	C	0.361957	0.06119	0.436043
0	C	0.638163	0.939809	0.433488
0	C	0.938528	0.36331	0.43169
0	C	0.0630526	0.637546	0.421043
0	C	0.836304	0.553473	0.788645
0	C	0.163482	0.448107	0.791229
0	C	0.446902	0.838681	0.777324
0	C	0.552539	0.163306	0.787906
0	C	0.33786	0.053996	0.290861
0	C	0.662363	0.947514	0.288734
0	C	0.94666	0.338653	0.287906
0	C	0.0543737	0.662317	0.277807
0	C	0.822962	0.591701	0.685024
0	C	0.176789	0.409572	0.688789
0	C	0.409416	0.824531	0.672209
0	C	0.590367	0.177126	0.683597
0	C	0.324607	0.0925892	0.188564
0	C	0.675585	0.909263	0.185036
0	C	0.908772	0.324967	0.183645
0	C	0.091889	0.67629	0.172519
0	C	0.834536	0.638985	0.737599
0	C	0.165404	0.362432	0.74298
0	C	0.361804	0.835846	0.721728
0	C	0.637812	0.165744	0.734645
0	C	0.336309	0.139686	0.242478
0	C	0.663644	0.861999	0.236956
0	C	0.861401	0.336976	0.233925
0	C	0.139453	0.664385	0.221054
0	C	0.872368	0.516086	0.0356814
0	C	0.12727	0.486296	0.0365092
0	C	0.482399	0.876039	0.0253287
0	C	0.516104	0.126397	0.035009
0	C	0.374083	0.0156943	0.535999
0	C	0.626255	0.984853	0.535815
0	C	0.983215	0.375695	0.534842
0	C	0.0187359	0.624606	0.525121
0	C	0.823999	0.491121	0.0866697
0	C	0.175466	0.511999	0.0855129
0	C	0.507748	0.828102	0.0789322
0	C	0.490741	0.174519	0.086911
0	C	0.325716	0.990704	0.586998
0	C	0.674728	0.00904324	0.589582
0	C	0.00758069	0.327403	0.589889
0	C	0.994046	0.672571	0.581584
0	C	0.901922	0.529445	0.185056
0	C	0.0980171	0.473401	0.186919
0	C	0.46788	0.905857	0.173088
0	C	0.530035	0.0967611	0.183734
0	C	0.403934	0.0284277	0.685355
0	C	0.595869	0.971542	0.683511
0	C	0.969428	0.406154	0.681992
0	C	0.0331456	0.593976	0.67128
0	C	0.903295	0.479844	0.936287
0	C	0.0958561	0.521731	0.935709
0	C	0.518587	0.907331	0.926979
0	C	0.480109	0.0950968	0.935895
0	C	0.404708	0.979688	0.434785
0	C	0.596268	0.0218063	0.436138
0	C	0.0200691	0.405874	0.435393
0	C	0.981907	0.594261	0.426143
0	C	0.796246	0.582493	0.528733
0	C	0.203138	0.418521	0.53168
0	C	0.419341	0.79702	0.51777
0	C	0.580716	0.204191	0.52817
0	C	0.298218	0.083872	0.0314223
0	C	0.702471	0.918309	0.0289615
0	C	0.918152	0.297559	0.0286714
0	C	0.0819886	0.703968	0.0184117
0	C	0.74225	0.597598	0.553953
0	C	0.257763	0.406158	0.55826
0	C	0.403282	0.743282	0.544177
0	C	0.596281	0.258103	0.553672
0	C	0.243876	0.097658	0.0565475
0	C	0.756181	0.902102	0.0534357
0	C	0.901079	0.244077	0.0535242
0	C	0.0989945	0.757449	0.0438654
0	C	0.819942	0.613519	0.396603
0	C	0.180834	0.385094	0.403181
0	C	0.3895	0.820433	0.382358
0	C	0.611071	0.180536	0.394404
0	C	0.321615	0.116322	0.902288
0	C	0.678114	0.887974	0.896404
0	C	0.888748	0.322049	0.894203
0	C	0.111091	0.679913	0.882477
0	C	0.799081	0.528091	0.478231
0	C	0.197868	0.472269	0.476237
0	C	0.474038	0.798854	0.470978
0	C	0.526172	0.20181	0.479715
0	C	0.302219	0.0298588	0.977646
0	C	0.70074	0.972847	0.979574
0	C	0.97287	0.298383	0.981777
0	C	0.0271387	0.703029	0.973249
0	H	0.827571	0.515687	0.754838
0	H	0.17207	0.485796	0.755914
0	H	0.484931	0.830328	0.745854
0	H	0.514635	0.171847	0.755347
0	H	0.329005	0.0163348	0.255801
0	H	0.671356	0.98529	0.255337
0	H	0.98449	0.329661	0.2558
0	H	0.0164113	0.671171	0.246989
0	H	0.891246	0.616734	0.0915224
0	H	0.10923	0.385678	0.0972137
0	H	0.381383	0.893275	0.0760316
0	H	0.616931	0.108384	0.0884029
0	H	0.393056	0.116158	0.59552
0	H	0.606774	0.884302	0.590547
0	H	0.882578	0.395016	0.5863
0	H	0.119645	0.606268	0.574105
0	H	0.863963	0.7464	0.669448
0	H	0.136048	0.254707	0.67889
0	H	0.254486	0.863818	0.647638
0	H	0.745049	0.137018	0.663109
0	H	0.366421	0.24701	0.176324
0	H	0.634135	0.754547	0.167636
0	H	0.75435	0.366252	0.160742
0	H	0.246492	0.635697	0.145111
0	H	0.906834	0.712318	0.903147
0	H	0.0936149	0.289462	0.912513
0	H	0.286402	0.906913	0.883972
0	H	0.712148	0.0938982	0.898045
0	H	0.409122	0.212158	0.409379
0	H	0.590649	0.789001	0.399854
0	H	0.787647	0.410057	0.394111
0	H	0.214296	0.592048	0.380298
0	H	0.850937	0.716619	0.0119563
0	H	0.149751	0.285534	0.0200261
0	H	0.282722	0.850698	0.991618
0	H	0.716151	0.149912	0.0066915
0	H	0.353274	0.216634	0.518411
0	H	0.64613	0.784168	0.510485
0	H	0.782978	0.354527	0.504809
0	H	0.218632	0.647824	0.489865
0	H	0.914996	0.448285	0.0077589
0	H	0.0840135	0.553576	0.00565499
0	H	0.549621	0.919652	0.999589
0	H	0.448773	0.0830281	0.00758726
0	H	0.416219	0.947708	0.504693
0	H	0.584996	0.0535113	0.507732
0	H	0.0515204	0.417527	0.507306
0	H	0.950592	0.582462	0.49843
0	H	0.936421	0.497631	0.890073
0	H	0.0628011	0.503426	0.891109
0	H	0.500529	0.940159	0.879397
0	H	0.498177	0.0621121	0.889507
0	H	0.437934	0.997429	0.389119
0	H	0.562919	0.00472681	0.388847
0	H	0.00279879	0.439039	0.387249
0	H	0.999267	0.561172	0.377786
0	H	0.882659	0.465325	0.835336
0	H	0.116186	0.535884	0.833567
0	H	0.53382	0.886698	0.827079
0	H	0.46531	0.115613	0.835078
0	H	0.383932	0.965739	0.333277
0	H	0.617412	0.0360964	0.335901
0	H	0.0346684	0.384692	0.335701
0	H	0.967092	0.615383	0.326648
0	H	0.831311	0.456262	0.147549
0	H	0.167863	0.546988	0.145328
0	H	0.541945	0.836059	0.142569
0	H	0.456088	0.166801	0.148267
0	H	0.333045	0.955786	0.647638
0	H	0.66756	0.0434468	0.653363
0	H	0.0415654	0.334888	0.655326
0	H	0.960427	0.664648	0.648451
0	H	0.799964	0.482647	0.985177
0	H	0.199211	0.520384	0.983249
0	H	0.517389	0.804056	0.978517
0	H	0.481912	0.198648	0.985953
0	H	0.301645	0.982302	0.485602
0	H	0.698938	0.0182078	0.489168
0	H	0.0174319	0.30322	0.490029
0	H	0.983498	0.696699	0.482345
0	H	0.803013	0.514568	0.168507
0	H	0.196843	0.48905	0.167838
0	H	0.484075	0.806792	0.159018
0	H	0.514041	0.195644	0.168754
0	H	0.30479	0.0141208	0.669114
0	H	0.695437	0.984804	0.669679
0	H	0.983204	0.306445	0.668684
0	H	0.0184988	0.693754	0.659445
0	H	0.719643	0.589506	0.450101
0	H	0.280067	0.414646	0.453949
0	H	0.410762	0.720348	0.44057
0	H	0.588291	0.280882	0.450083
0	H	0.221681	0.0898483	0.951552
0	H	0.77879	0.909734	0.949263
0	H	0.908243	0.221267	0.94944
0	H	0.0916403	0.780391	0.940207
0	H	0.739334	0.637206	0.578442
0	H	0.262545	0.366924	0.585517
0	H	0.363678	0.74116	0.568981
0	H	0.635899	0.26066	0.577703
0	H	0.240052	0.136992	0.0840232
0	H	0.758305	0.862427	0.0777263
0	H	0.861417	0.242643	0.0779155
0	H	0.138697	0.758931	0.0675697
0	H	0.725973	0.578393	0.655203
0	H	0.273022	0.42679	0.658259
0	H	0.422242	0.72679	0.645497
0	H	0.577364	0.274475	0.655299
0	H	0.227816	0.0773664	0.155918
0	H	0.772987	0.920929	0.154495
0	H	0.919628	0.226991	0.154614
0	H	0.0805765	0.774348	0.145519
0	H	0.908924	0.496709	0.257473
0	H	0.0907069	0.506445	0.257618
0	H	0.500169	0.914114	0.246011
0	H	0.497512	0.0889443	0.256094
0	H	0.411091	0.995379	0.756147
0	H	0.588801	0.00420386	0.756177
0	H	0.00194634	0.413855	0.754494
0	H	0.000852826	0.585655	0.744113
0	H	0.882271	0.555865	0.260762
0	H	0.118027	0.447653	0.263448
0	H	0.441938	0.885669	0.249339
0	H	0.556029	0.116814	0.260023
0	H	0.384415	0.0544406	0.762361
0	H	0.61494	0.944856	0.759863
0	H	0.943121	0.386691	0.758809
0	H	0.0592973	0.613624	0.748267
0	H	0.937685	0.545306	0.154912
0	H	0.0623968	0.456975	0.158152
0	H	0.451049	0.941051	0.141161
0	H	0.546587	0.0613377	0.152859
0	H	0.439655	0.0444062	0.65527
0	H	0.5601	0.956085	0.651249
0	H	0.953341	0.441633	0.649358
0	H	0.0496563	0.558792	0.637535
0	H	0.785446	0.523257	0.356406
0	H	0.211016	0.476696	0.353615
0	H	0.479533	0.78386	0.351237
0	H	0.520978	0.215959	0.358692
0	H	0.288667	0.02537	0.855556
0	H	0.714972	0.977655	0.858461
0	H	0.978068	0.283157	0.86223
0	H	0.0215222	0.71861	0.854443
0	H	0.777069	0.504056	0.55536
0	H	0.219039	0.497913	0.550442
0	H	0.497272	0.777441	0.552364
0	H	0.50258	0.223648	0.558733
0	H	0.280742	0.00490664	0.0532984
0	H	0.722812	0.99636	0.0581295
0	H	0.99576	0.276684	0.0632651
0	H	0.00438795	0.724352	0.0561803
0	H	0.837024	0.5146	0.479379
0	H	0.159396	0.484163	0.477442
0	H	0.487832	0.836728	0.468904
0	H	0.51253	0.163876	0.47986
0	H	0.340453	0.017215	0.978137
0	H	0.663019	0.986952	0.979322
0	H	0.987298	0.336012	0.979125
0	H	0.0128895	0.66534	0.969808
0	H	0.801479	0.608316	0.282744
0	H	0.196077	0.392678	0.285847
0	H	0.394832	0.800997	0.270217
0	H	0.605843	0.199513	0.281398
0	H	0.306007	0.109123	0.785178
0	H	0.696455	0.893153	0.782309
0	H	0.893718	0.302999	0.78121
0	H	0.105544	0.6991	0.770002
0	H	0.858747	0.603706	0.379895
0	H	0.140901	0.38971	0.395813
0	H	0.400253	0.858974	0.362997
0	H	0.600675	0.141865	0.376365
0	H	0.361342	0.110173	0.894582
0	H	0.639421	0.89837	0.880689
0	H	0.900163	0.360454	0.87653
0	H	0.0999101	0.641431	0.864559
0	H	0.818381	0.653088	0.423776
0	H	0.187764	0.345982	0.428763
0	H	0.34983	0.819927	0.407534
0	H	0.65067	0.181442	0.420656
0	H	0.316164	0.155694	0.927396
0	H	0.679106	0.848333	0.922711
0	H	0.84908	0.322153	0.919532
0	H	0.150846	0.680059	0.906299
0	H	0.777313	0.758975	0.709048
0	H	0.223094	0.243044	0.716682
0	H	0.242371	0.777184	0.685056
0	H	0.75747	0.223733	0.702674
0	H	0.279694	0.259753	0.216861
0	H	0.720603	0.74202	0.209258
0	H	0.741162	0.279892	0.203449
0	H	0.259643	0.721981	0.18591
0	O	0.758901	0.710831	0.0715708
0	O	0.241112	0.290839	0.0798579
0	O	0.292277	0.759471	0.0498227
0	O	0.709462	0.241362	0.0673914
0	O	0.261615	0.211788	0.579907
0	O	0.739114	0.790407	0.57151
0	O	0.789475	0.262044	0.567259
0	O	0.209669	0.739701	0.549829
0	O	0.695166	0.682314	0.918396
0	O	0.304205	0.319841	0.924838
0	O	0.320995	0.695012	0.901016
0	O	0.680679	0.305122	0.915143
0	O	0.197384	0.183827	0.427647
0	O	0.803456	0.818116	0.419289
0	O	0.817264	0.197474	0.416273
0	O	0.181757	0.804786	0.401819
0	C	0.736345	0.66675	0.0203818
0	C	0.263443	0.3351	0.0289797
0	C	0.336455	0.736237	0.00296194
0	C	0.665274	0.263995	0.0176872
0	C	0.238749	0.167912	0.528357
0	C	0.762056	0.8342	0.519505
0	C	0.833292	0.23887	0.516734
0	C	0.165786	0.763236	0.501622
0	C	0.714192	0.641297	0.166791
0	C	0.286157	0.360127	0.175247
0	C	0.360672	0.714032	0.15156
0	C	0.640317	0.286305	0.164775
0	C	0.21684	0.142249	0.674751
0	C	0.783911	0.859989	0.665774
0	C	0.858639	0.216904	0.66363
0	C	0.140991	0.785014	0.649885
0	C	0.659996	0.648038	0.144301
0	C	0.340235	0.353208	0.150692
0	C	0.353315	0.659795	0.130016
0	C	0.647554	0.340523	0.142557
0	C	0.162602	0.148915	0.653161
0	C	0.838126	0.852797	0.645383
0	C	0.85147	0.16263	0.64288
0	C	0.14843	0.839319	0.630355
0	C	0.620781	0.634761	0.239352
0	C	0.379785	0.366004	0.244904
0	C	0.365426	0.620462	0.226449
0	C	0.634989	0.379872	0.238263
0	C	0.123562	0.135423	0.74863
0	C	0.8771	0.865985	0.741594
0	C	0.864408	0.123523	0.739074
0	C	0.135982	0.878332	0.7277
0	C	0.572859	0.64603	0.187628
0	C	0.42751	0.354783	0.191179
0	C	0.353108	0.57261	0.175891
0	C	0.646897	0.427725	0.186854
0	C	0.0755193	0.146715	0.698027
0	C	0.925113	0.854098	0.692213
0	C	0.852277	0.0755151	0.689689
0	C	0.148477	0.926353	0.679309
0	C	0.566013	0.67223	0.0459809
0	C	0.433824	0.328861	0.048774
0	C	0.327083	0.566013	0.0337935
0	C	0.672973	0.434327	0.0449064
0	C	0.0683963	0.173068	0.556823
0	C	0.932247	0.827553	0.551336
0	C	0.825904	0.0684946	0.548465
0	C	0.174842	0.933433	0.538091
0	C	0.605047	0.687441	0.948347
0	C	0.394404	0.314051	0.952095
0	C	0.313119	0.605193	0.934625
0	C	0.687278	0.395163	0.946251
0	C	0.107245	0.188405	0.45861
0	C	0.89346	0.812597	0.452263
0	C	0.811303	0.107417	0.449208
0	C	0.188992	0.894614	0.437756
0	C	0.651637	0.673309	8.27936e-05
0	C	0.348042	0.328329	0.00548147
0	C	0.328493	0.65156	0.984987
0	C	0.672531	0.348702	0.997716
0	C	0.153975	0.174437	0.509562
0	C	0.846783	0.827103	0.502148
0	C	0.825967	0.154068	0.499292
0	C	0.173736	0.848021	0.486488
0	C	0.5274	0.630265	0.281884
0	C	0.473227	0.370569	0.28409
0	C	0.367083	0.526959	0.272527
0	C	0.63189	0.473474	0.281184
0	C	0.0303286	0.130801	0.793399
0	C	0.970287	0.869573	0.788485
0	C	0.867142	0.0302279	0.786645
0	C	0.134137	0.971647	0.777129
0	C	0.540368	0.597487	0.424759
0	C	0.460392	0.402953	0.428086
0	C	0.400209	0.539229	0.41509
0	C	0.598792	0.461111	0.423709
0	C	0.0437824	0.0966493	0.932449
0	C	0.957017	0.90323	0.928947
0	C	0.900721	0.0433083	0.927405
0	C	0.100432	0.958761	0.917699
0	C	0.493154	0.600898	0.171306
0	C	0.506874	0.400454	0.173027
0	C	0.395328	0.490976	0.164616
0	C	0.603197	0.508174	0.170168
0	C	0.994959	0.102888	0.6826
0	C	0.00570963	0.897813	0.678729
0	C	0.895135	0.9943	0.677942
0	C	0.106445	0.0080658	0.669263
0	C	0.501172	0.676821	0.342785
0	C	0.500063	0.324111	0.342923
0	C	0.319459	0.502848	0.333812
0	C	0.678774	0.498977	0.342395
0	C	0.00498583	0.177132	0.859799
0	C	0.995403	0.822935	0.853461
0	C	0.820187	0.00565352	0.851237
0	C	0.181415	0.995603	0.841786
0	C	0.598575	0.717214	0.796294
0	C	0.400196	0.284268	0.799788
0	C	0.283192	0.599289	0.78271
0	C	0.716758	0.401447	0.793592
0	C	0.100455	0.218051	0.306409
0	C	0.900139	0.782827	0.300239
0	C	0.781665	0.100991	0.296897
0	C	0.218851	0.901094	0.285888
0	C	0.613862	0.684537	0.655485
0	C	0.384062	0.316719	0.659409
0	C	0.316062	0.613836	0.641702
0	C	0.683872	0.38621	0.653331
0	C	0.115586	0.185192	0.165829
0	C	0.885009	0.81558	0.159386
0	C	0.814412	0.116466	0.156511
0	C	0.186163	0.88599	0.144989
0	C	0.632158	0.762754	0.804941
0	C	0.366849	0.238619	0.811235
0	C	0.238436	0.633928	0.790341
0	C	0.762151	0.367685	0.801297
0	C	0.133949	0.263649	0.314453
0	C	0.866447	0.737365	0.308282
0	C	0.736163	0.134607	0.305114
0	C	0.264132	0.86716	0.293773
0	C	0.545101	0.734345	0.774143
0	C	0.453623	0.267357	0.77486
0	C	0.264936	0.546111	0.761835
0	C	0.733883	0.45496	0.771185
0	C	0.0469256	0.235069	0.284464
0	C	0.953615	0.765653	0.278304
0	C	0.764648	0.0474665	0.274021
0	C	0.236214	0.954567	0.264444
0	H	0.528515	0.680982	0.00961915
0	H	0.47117	0.320017	0.011033
0	H	0.317399	0.528604	0.998459
0	H	0.682321	0.471776	0.00912906
0	H	0.0308319	0.181826	0.521188
0	H	0.969784	0.818322	0.516726
0	H	0.816519	0.0309537	0.513841
0	H	0.184604	0.970962	0.504465
0	H	0.627421	0.61607	0.351292
0	H	0.373529	0.38431	0.357712
0	H	0.38396	0.626958	0.338727
0	H	0.616401	0.373408	0.35044
0	H	0.130462	0.116583	0.860166
0	H	0.870175	0.885018	0.852747
0	H	0.883439	0.130326	0.850285
0	H	0.117072	0.871466	0.839069
0	H	0.760899	0.645559	0.941834
0	H	0.23853	0.356484	0.952145
0	H	0.358479	0.760407	0.925608
0	H	0.643807	0.239413	0.940051
0	H	0.263033	0.146762	0.448884
0	H	0.737833	0.855293	0.439689
0	H	0.854658	0.263003	0.437334
0	H	0.144013	0.739403	0.422386
0	H	0.724868	0.602171	0.174351
0	H	0.275668	0.399272	0.18421
0	H	0.39981	0.72425	0.161293
0	H	0.601142	0.276012	0.172848
0	H	0.227631	0.103146	0.681718
0	H	0.77346	0.899196	0.671588
0	H	0.897784	0.227356	0.670627
0	H	0.101793	0.774806	0.657891
0	H	0.727179	0.659326	0.27778
0	H	0.273464	0.341898	0.286239
0	H	0.342153	0.727539	0.261032
0	H	0.658349	0.273024	0.275357
0	H	0.229924	0.160181	0.785826
0	H	0.770404	0.842398	0.776857
0	H	0.840768	0.230354	0.77431
0	H	0.159093	0.77123	0.759751
0	H	0.631158	0.784184	0.694652
0	H	0.36712	0.21708	0.701103
0	H	0.217382	0.633472	0.679306
0	H	0.783255	0.368552	0.690362
0	H	0.132308	0.28545	0.205116
0	H	0.868062	0.715578	0.198905
0	H	0.71483	0.133557	0.194746
0	H	0.285317	0.868005	0.183129
0	H	0.670899	0.752246	0.822526
0	H	0.328204	0.248991	0.831603
0	H	0.249772	0.672441	0.808435
0	H	0.751537	0.328959	0.819364
0	H	0.172793	0.253173	0.329721
0	H	0.827644	0.748046	0.323256
0	H	0.746697	0.173387	0.322576
0	H	0.253332	0.82848	0.311598
0	H	0.62224	0.787258	0.902744
0	H	0.377589	0.214226	0.908422
0	H	0.213419	0.624525	0.887231
0	H	0.786939	0.377595	0.898294
0	H	0.124517	0.287782	0.413758
0	H	0.875699	0.713166	0.407564
0	H	0.711628	0.124752	0.402838
0	H	0.288886	0.876889	0.391079
0	H	0.540347	0.754474	0.662006
0	H	0.457852	0.247025	0.662922
0	H	0.2441	0.541662	0.650982
0	H	0.754073	0.459699	0.659238
0	H	0.04208	0.255139	0.172346
0	H	0.958458	0.745824	0.165713
0	H	0.744223	0.0429228	0.162441
0	H	0.257082	0.959211	0.153741
0	H	0.533617	0.759385	0.870136
0	H	0.465782	0.242597	0.870717
0	H	0.240296	0.535205	0.859587
0	H	0.758777	0.466516	0.867503
0	H	0.0354253	0.260101	0.380492
0	H	0.964982	0.740363	0.37377
0	H	0.739964	0.0356585	0.37055
0	H	0.260583	0.966117	0.362129
0	H	0.51943	0.703339	0.771578
0	H	0.479064	0.29854	0.770116
0	H	0.295388	0.51981	0.757818
0	H	0.702885	0.480635	0.768343
0	H	0.0213358	0.203997	0.282165
0	H	0.979318	0.796647	0.276811
0	H	0.795698	0.0218772	0.269835
0	H	0.205277	0.980286	0.259387
0	H	0.612474	0.704489	0.542957
0	H	0.384653	0.296558	0.547175
0	H	0.295947	0.613241	0.529458
0	H	0.703663	0.387521	0.540531
0	H	0.114177	0.205047	0.0531522
0	H	0.886067	0.795556	0.0469777
0	H	0.794489	0.115544	0.0439426
0	H	0.206137	0.887034	0.0325491
0	H	0.590076	0.652025	0.643831
0	H	0.407837	0.349145	0.645476
0	H	0.347821	0.589079	0.629288
0	H	0.651471	0.410151	0.642111
0	H	0.0917309	0.152725	0.154737
0	H	0.909082	0.847868	0.147258
0	H	0.846739	0.0924658	0.144256
0	H	0.153899	0.910105	0.132997
0	H	0.651818	0.671473	0.67041
0	H	0.346227	0.329877	0.676609
0	H	0.330299	0.651398	0.657049
0	H	0.670706	0.348258	0.668476
0	H	0.153517	0.172049	0.180593
0	H	0.847189	0.829024	0.174512
0	H	0.82774	0.154336	0.172398
0	H	0.172689	0.848133	0.160083
0	H	0.462491	0.584193	0.237665
0	H	0.538119	0.416471	0.238289
0	H	0.411804	0.460806	0.233786
0	H	0.586568	0.538882	0.236479
0	H	0.963872	0.0870181	0.74905
0	H	0.0364127	0.9141	0.74605
0	H	0.910971	0.963534	0.746174
0	H	0.0907014	0.0386862	0.738281
0	H	0.512878	0.571044	0.111816
0	H	0.486901	0.430822	0.117217
0	H	0.425191	0.509574	0.101603
0	H	0.573435	0.488722	0.109367
0	H	0.0136145	0.0726319	0.621705
0	H	0.9869	0.927855	0.617214
0	H	0.925434	0.0126833	0.616533
0	H	0.0761147	0.990012	0.607025
0	H	0.476712	0.623957	0.0791569
0	H	0.522448	0.37793	0.0779832
0	H	0.371631	0.473851	0.0755615
0	H	0.626661	0.524557	0.0790131
0	H	0.97909	0.126783	0.5916
0	H	0.0221368	0.874085	0.588341
0	H	0.871406	0.97793	0.587488
0	H	0.130338	0.0245578	0.579488
0	H	0.507262	0.585347	0.48721
0	H	0.493567	0.41532	0.489713
0	H	0.411261	0.505824	0.478284
0	H	0.587341	0.494511	0.486172
0	H	0.0109061	0.0838859	0.994849
0	H	0.989973	0.915523	0.991895
0	H	0.912734	0.0102445	0.990539
0	H	0.0888234	0.991892	0.981306
0	H	0.563208	0.617033	0.512243
0	H	0.438024	0.382963	0.515835
0	H	0.38148	0.562885	0.502225
0	H	0.617744	0.437802	0.511269
0	H	0.0669134	0.115408	0.0208923
0	H	0.933751	0.884292	0.0166758
0	H	0.881883	0.0667264	0.0149932
0	H	0.118957	0.934973	0.00493994
0	H	0.560296	0.564213	0.386608
0	H	0.440027	0.436073	0.391274
0	H	0.434065	0.558045	0.376559
0	H	0.565175	0.441882	0.385205
0	H	0.063604	0.0637961	0.890232
0	H	0.937397	0.936401	0.888251
0	H	0.93404	0.0627171	0.887022
0	H	0.0668695	0.939803	0.877166
0	H	0.467735	0.667493	0.408518
0	H	0.533657	0.333579	0.407709
0	H	0.327184	0.468798	0.398798
0	H	0.669969	0.532587	0.408229
0	H	0.972297	0.167539	0.928879
0	H	0.0280904	0.832143	0.923135
0	H	0.828911	0.972605	0.919949
0	H	0.173128	0.028819	0.910241
0	H	0.490526	0.701265	0.245672
0	H	0.510609	0.3	0.244824
0	H	0.294406	0.493568	0.236915
0	H	0.703391	0.509304	0.245437
0	H	0.993278	0.202048	0.765241
0	H	0.00703334	0.798216	0.758287
0	H	0.795282	0.994642	0.755886
0	H	0.206499	0.00621186	0.746441
0	H	0.524972	0.697791	0.422879
0	H	0.47674	0.302748	0.423348
0	H	0.299802	0.527513	0.414651
0	H	0.69929	0.474786	0.422493
0	H	0.0297205	0.197666	0.938081
0	H	0.970496	0.802328	0.930988
0	H	0.800014	0.0307011	0.929515
0	H	0.201229	0.970335	0.920266
0	H	0.770283	0.730684	0.974921
0	H	0.229915	0.271009	0.98283
0	H	0.273008	0.770232	0.951035
0	H	0.729072	0.230236	0.969898
0	H	0.273211	0.231657	0.483605
0	H	0.727446	0.770535	0.475251
0	H	0.769861	0.273512	0.470184
0	H	0.229124	0.728682	0.451791
