#******************************************
#
# CIF file created by Zeo++
# Zeo++ is an open source package to
# analyze microporous materials
#
#*******************************************

_cell_length_a		23.7986(0)
_cell_length_b		20.8508(0)
_cell_length_c		18.1285(0)
_cell_angle_alpha		90(0)
_cell_angle_beta		90(0)
_cell_angle_gamma		90(0)

_symmetry_space_group_name_H-M		'P1'
_symmetry_Int_Tables_number		1
_symmetry_cell_setting		Monoclinic

loop_
_symmetry_equiv_pos_as_xyz
'+x,+y,+z'

loop_
_atom_site_label
_atom_site_type_symbol
_atom_site_fract_x
_atom_site_fract_y
_atom_site_fract_z
0	C	0.319348	0.393037	0.351878
0	C	0.177174	0.584717	0.830984
0	C	0.677232	0.892515	0.0604089
0	C	0.820158	0.0887085	0.539059
0	C	0.679894	0.586068	0.54027
0	C	0.823465	0.39627	0.0592051
0	C	0.32262	0.0900225	0.832089
0	C	0.179427	0.887929	0.35198
0	C	0.277204	0.33833	0.365087
0	C	0.218292	0.640223	0.84515
0	C	0.718637	0.837216	0.0464865
0	C	0.777478	0.142926	0.526115
0	C	0.72218	0.640642	0.527081
0	C	0.782066	0.341057	0.0448629
0	C	0.281838	0.145905	0.84605
0	C	0.221433	0.833047	0.364947
0	H	0.253342	0.345465	0.416156
0	H	0.241317	0.633707	0.896965
0	H	0.741578	0.843717	0.994622
0	H	0.753683	0.135735	0.47499
0	H	0.746013	0.633436	0.476001
0	H	0.759245	0.347685	0.992918
0	H	0.258991	0.139819	0.898057
0	H	0.245297	0.83991	0.416086
0	H	0.299254	0.292154	0.370445
0	H	0.195493	0.68597	0.849655
0	H	0.696072	0.791311	0.0422055
0	H	0.799036	0.189413	0.521004
0	H	0.700235	0.686886	0.52173
0	H	0.804606	0.295128	0.0405231
0	H	0.304888	0.191514	0.850077
0	H	0.19931	0.786911	0.370065
0	H	0.247017	0.334097	0.319732
0	H	0.24918	0.64484	0.800694
0	H	0.749575	0.833023	0.0909186
0	H	0.74722	0.146599	0.571431
0	H	0.752372	0.644782	0.572445
0	H	0.750998	0.336705	0.0891336
0	H	0.250806	0.150398	0.801773
0	H	0.251638	0.828882	0.31963
0	C	0.28956	0.458393	0.355153
0	C	0.207983	0.519943	0.833917
0	C	0.707783	0.957439	0.0570323
0	C	0.790975	0.0229778	0.535448
0	C	0.709515	0.520615	0.537022
0	C	0.793	0.461255	0.0561613
0	C	0.29135	0.025539	0.835652
0	C	0.20942	0.953201	0.355505
0	H	0.273059	0.4684	0.410377
0	H	0.224991	0.510208	0.888954
0	H	0.72428	0.967144	0.00169694
0	H	0.775113	0.0126103	0.479957
0	H	0.725903	0.51051	0.481768
0	H	0.776491	0.471277	0.000938742
0	H	0.274697	0.0162141	0.890997
0	H	0.225815	0.963141	0.410842
0	H	0.254153	0.459836	0.316518
0	H	0.243167	0.519158	0.79488
0	H	0.743312	0.958352	0.0955397
0	H	0.75518	0.0211263	0.57346
0	H	0.744967	0.519095	0.575583
0	H	0.757512	0.462142	0.0947069
0	H	0.25583	0.0250274	0.797126
0	H	0.244955	0.954637	0.317051
0	H	0.318348	0.497464	0.340265
0	H	0.17974	0.48032	0.819155
0	H	0.679569	0.996903	0.0721722
0	H	0.819906	0.984312	0.551051
0	H	0.680657	0.481651	0.552034
0	H	0.821332	0.500637	0.0714956
0	H	0.319131	0.98563	0.820699
0	H	0.180827	0.992344	0.340434
0	C	0.365734	0.39074	0.41089
0	C	0.130435	0.58558	0.889627
0	C	0.630507	0.891013	0.00180335
0	C	0.866449	0.0917993	0.479943
0	C	0.633565	0.588527	0.481196
0	C	0.870319	0.395039	0.000756602
0	C	0.369455	0.0909064	0.890563
0	C	0.133134	0.885656	0.411132
0	C	0.351168	0.385522	0.493056
0	C	0.143303	0.587903	0.972579
0	C	0.643627	0.888218	0.918956
0	C	0.85183	0.0975532	0.397822
0	C	0.648182	0.593795	0.399033
0	C	0.857583	0.392523	0.917784
0	C	0.356517	0.0935259	0.973467
0	C	0.147737	0.880353	0.493305
0	C	0.305193	0.402974	0.534386
0	C	0.187816	0.568036	0.0152259
0	C	0.688228	0.908159	0.876516
0	C	0.805934	0.0801004	0.356348
0	C	0.694125	0.576259	0.357686
0	C	0.813181	0.412416	0.874965
0	C	0.311884	0.0737644	0.0159512
0	C	0.193711	0.897864	0.534613
0	H	0.269497	0.427774	0.510046
0	H	0.224455	0.544939	0.99117
0	H	0.724721	0.931434	0.900744
0	H	0.770276	0.0551776	0.380567
0	H	0.729794	0.551395	0.382008
0	H	0.776587	0.43575	0.898826
0	H	0.275207	0.0508801	0.991709
0	H	0.229448	0.922441	0.510118
0	C	0.305448	0.387455	0.61034
0	C	0.184769	0.578457	0.0922786
0	C	0.685436	0.897642	0.799488
0	C	0.806217	0.0957531	0.280424
0	C	0.693867	0.591754	0.281726
0	C	0.816258	0.401664	0.79797
0	C	0.314909	0.0839323	0.0930284
0	C	0.193355	0.882749	0.610673
0	H	0.269261	0.40027	0.643955
0	H	0.219644	0.56315	0.126886
0	H	0.720351	0.913036	0.765031
0	H	0.770118	0.0828114	0.246692
0	H	0.730026	0.578861	0.248084
0	H	0.781466	0.416982	0.763228
0	H	0.279979	0.0686548	0.127521
0	H	0.22949	0.895757	0.644316
0	C	0.351045	0.35641	0.642225
0	C	0.138095	0.607407	0.124035
0	C	0.638919	0.868509	0.767573
0	C	0.851753	0.127027	0.248684
0	C	0.648291	0.622832	0.249841
0	C	0.862843	0.372339	0.766452
0	C	0.361666	0.112581	0.124934
0	C	0.147695	0.851924	0.642681
0	H	0.350531	0.344508	0.700762
0	H	0.136355	0.614861	0.183547
0	H	0.637338	0.861161	0.70804
0	H	0.851245	0.138987	0.190147
0	H	0.648787	0.634669	0.191281
0	H	0.864601	0.364629	0.70698
0	H	0.363413	0.11967	0.184504
0	H	0.148168	0.840335	0.701319
0	C	0.399101	0.340222	0.600278
0	C	0.0918712	0.627051	0.0804717
0	C	0.592682	0.848608	0.810975
0	C	0.899711	0.143289	0.290809
0	C	0.60027	0.639118	0.291807
0	C	0.908955	0.352642	0.810208
0	C	0.407923	0.132314	0.0814627
0	C	0.0996618	0.835649	0.600724
0	H	0.434965	0.317123	0.626545
0	H	0.0552069	0.648861	0.106283
0	H	0.556184	0.826575	0.785
0	H	0.935537	0.166541	0.264653
0	H	0.564404	0.662231	0.26555
0	H	0.945535	0.330508	0.78457
0	H	0.444601	0.153977	0.107422
0	H	0.0637391	0.812774	0.627098
0	C	0.398755	0.354588	0.526251
0	C	0.0948479	0.617403	0.00552879
0	C	0.59538	0.858377	0.885931
0	C	0.899366	0.128719	0.364786
0	C	0.600636	0.624809	0.365841
0	C	0.905961	0.362644	0.885088
0	C	0.40502	0.122851	0.00647239
0	C	0.100054	0.849723	0.526623
0	C	0.440477	0.343221	0.46275
0	C	0.0547256	0.631597	0.941048
0	C	0.555081	0.844397	0.95034
0	C	0.941131	0.139768	0.42832
0	C	0.558924	0.636243	0.429333
0	C	0.945919	0.348465	0.949749
0	C	0.445292	0.136682	0.941992
0	C	0.0582058	0.838613	0.463223
0	C	0.459651	0.410093	0.436806
0	C	0.0359977	0.565551	0.911942
0	C	0.536119	0.910595	0.978734
0	C	0.960344	0.0727086	0.453613
0	C	0.53963	0.569393	0.455177
0	C	0.964862	0.414502	0.978652
0	C	0.463736	0.0703963	0.913275
0	C	0.039376	0.905652	0.437393
0	H	0.502367	0.425757	0.442557
0	H	0.993252	0.549674	0.915964
0	H	0.493339	0.926373	0.974237
0	H	0.00298693	0.0570681	0.447556
0	H	0.496894	0.553821	0.449386
0	H	0.00767489	0.43015	0.974683
0	H	0.506405	0.0542007	0.917603
0	H	0.996828	0.921661	0.443366
0	C	0.414933	0.438573	0.405853
0	C	0.0812841	0.537948	0.881382
0	C	0.581233	0.93855	0.00935398
0	C	0.91568	0.0439664	0.484391
0	C	0.584297	0.54078	0.486112
0	C	0.919628	0.442436	0.00897588
0	C	0.418384	0.0429488	0.882669
0	C	0.0841945	0.933834	0.406284
0	H	0.410718	0.484318	0.379674
0	H	0.0860615	0.492956	0.853647
0	H	0.585759	0.983741	0.0366203
0	H	0.911457	0.998072	0.510107
0	H	0.588432	0.494981	0.512188
0	H	0.91499	0.487539	0.0365255
0	H	0.413498	0.997894	0.85521
0	H	0.0886752	0.979486	0.380071
0	O	0.397853	0.329312	0.40409
0	O	0.0985609	0.647181	0.884557
0	O	0.598759	0.82933	0.00726563
0	O	0.89856	0.153201	0.48723
0	O	0.601545	0.650014	0.488036
0	O	0.901926	0.333278	0.00616012
0	O	0.401616	0.152315	0.885266
0	O	0.100669	0.824467	0.404405
0	C	0.484216	0.289201	0.467378
0	C	0.0113383	0.686031	0.945926
0	C	0.511704	0.789948	0.945562
0	C	0.984744	0.193987	0.423888
0	C	0.515284	0.690374	0.42474
0	C	0.989075	0.293759	0.94527
0	C	0.489063	0.190727	0.946819
0	C	0.0142527	0.78477	0.467969
0	C	0.45345	0.226413	0.486282
0	C	0.0423885	0.747773	0.96836
0	C	0.542827	0.727952	0.924347
0	C	0.953685	0.256709	0.405475
0	C	0.546156	0.753094	0.405837
0	C	0.957793	0.232124	0.923013
0	C	0.458391	0.252931	0.968355
0	C	0.0449058	0.721876	0.486749
0	H	0.482214	0.185312	0.488965
0	H	0.0141997	0.789346	0.971091
0	H	0.514731	0.686252	0.922755
0	H	0.982125	0.298118	0.403786
0	H	0.517456	0.794255	0.40321
0	H	0.985733	0.190315	0.92087
0	H	0.486788	0.294365	0.970133
0	H	0.0161575	0.68076	0.488969
0	H	0.420881	0.216101	0.444953
0	H	0.0763095	0.758615	0.929152
0	H	0.576925	0.718003	0.963656
0	H	0.920693	0.266307	0.446454
0	H	0.578781	0.763326	0.44712
0	H	0.923589	0.221762	0.961966
0	H	0.424347	0.263332	0.929127
0	H	0.0776723	0.711688	0.445651
0	H	0.432217	0.229447	0.539936
0	H	0.0620491	0.742704	0.0227849
0	H	0.562262	0.732075	0.869693
0	H	0.932862	0.253947	0.351524
0	H	0.567321	0.750017	0.352146
0	H	0.938469	0.237013	0.868367
0	H	0.438947	0.248791	0.0230042
0	H	0.0659383	0.724785	0.540564
0	C	0.527376	0.30657	0.52712
0	C	0.96669	0.668001	0.00348231
0	C	0.467511	0.80758	0.887255
0	C	0.0277698	0.177098	0.363805
0	C	0.472095	0.67314	0.364996
0	C	0.0339041	0.311337	0.887762
0	C	0.533238	0.172546	0.00492472
0	C	0.971291	0.802248	0.527897
0	H	0.556855	0.267086	0.537012
0	H	0.937149	0.707546	0.0128279
0	H	0.438155	0.767946	0.877531
0	H	0.057284	0.21663	0.354301
0	H	0.442507	0.712574	0.355402
0	H	0.0632016	0.27154	0.878552
0	H	0.562924	0.211868	0.0146306
0	H	0.941668	0.762888	0.537749
0	H	0.507229	0.317951	0.579934
0	H	0.985535	0.655738	0.0568582
0	H	0.486787	0.819705	0.834088
0	H	0.00752303	0.166208	0.310923
0	H	0.492204	0.662059	0.312073
0	H	0.0152087	0.323654	0.834319
0	H	0.513972	0.160526	0.0581285
0	H	0.991588	0.813434	0.580664
0	H	0.552621	0.348139	0.510028
0	H	0.941598	0.626868	0.984619
0	H	0.442171	0.848699	0.905519
0	H	0.0530548	0.135357	0.380223
0	H	0.446963	0.631421	0.381878
0	H	0.0592342	0.352294	0.906589
0	H	0.558212	0.131201	0.986482
0	H	0.94612	0.843962	0.51109
0	C	0.514633	0.280325	0.393131
0	C	0.982826	0.69682	0.870705
0	C	0.482611	0.779679	0.0205237
0	C	0.0153211	0.2027	0.498007
0	C	0.484903	0.699268	0.499013
0	C	0.0173864	0.283067	0.0206388
0	C	0.518059	0.200908	0.871782
0	C	0.983683	0.776052	0.393844
0	C	0.561879	0.230306	0.387202
0	C	0.936544	0.747826	0.863367
0	C	0.435859	0.729189	0.0276919
0	C	0.0627553	0.252504	0.503887
0	C	0.437765	0.749407	0.505049
0	C	0.0634942	0.231893	0.0283478
0	C	0.565033	0.251115	0.864472
0	C	0.936067	0.726493	0.388003
0	C	0.57514	0.175911	0.426556
0	C	0.923274	0.802219	0.902667
0	C	0.422002	0.67506	0.988251
0	C	0.0762629	0.306714	0.464366
0	C	0.424642	0.803911	0.465823
0	C	0.0766444	0.177314	0.989332
0	C	0.579251	0.305129	0.903904
0	C	0.922367	0.672363	0.427563
0	H	0.548736	0.159376	0.472013
0	H	0.948729	0.817783	0.94942
0	H	0.44752	0.658969	0.941813
0	H	0.049789	0.323549	0.419142
0	H	0.451083	0.820436	0.420397
0	H	0.0512229	0.161718	0.942569
0	H	0.553961	0.321304	0.950517
0	H	0.948757	0.655469	0.472854
0	C	0.624331	0.141915	0.407123
0	C	0.875228	0.83753	0.881431
0	C	0.373192	0.640837	0.00889146
0	C	0.125914	0.340091	0.483229
0	C	0.375523	0.838013	0.485328
0	C	0.124523	0.141844	0.0108874
0	C	0.628099	0.339156	0.882968
0	C	0.872653	0.639158	0.408644
0	H	0.635571	0.0993297	0.438614
0	H	0.863807	0.87998	0.91299
0	H	0.361305	0.598685	0.977108
0	H	0.137468	0.382394	0.451448
0	H	0.364382	0.880679	0.453929
0	H	0.135831	0.09922	0.979575
0	H	0.640263	0.381231	0.914717
0	H	0.860946	0.596918	0.440439
0	C	0.658098	0.162464	0.349208
0	C	0.842726	0.818364	0.821692
0	C	0.340531	0.660664	0.0682174
0	C	0.159763	0.319268	0.540918
0	C	0.341685	0.817435	0.543149
0	C	0.157002	0.161093	0.0706133
0	C	0.660437	0.31925	0.823377
0	C	0.838943	0.660029	0.350838
0	H	0.696296	0.136343	0.335234
0	H	0.805425	0.845589	0.806362
0	H	0.302577	0.634399	0.0829723
0	H	0.198338	0.344895	0.554424
0	H	0.303525	0.84361	0.557155
0	H	0.194179	0.133753	0.0861889
0	H	0.698392	0.345402	0.80834
0	H	0.800322	0.634523	0.337291
0	C	0.643992	0.217613	0.307825
0	C	0.856929	0.763205	0.780309
0	C	0.355438	0.715367	0.109933
0	C	0.145312	0.264414	0.582634
0	C	0.355648	0.762152	0.584388
0	C	0.142917	0.216463	0.111706
0	C	0.645208	0.264613	0.78175
0	C	0.853601	0.714771	0.309056
0	H	0.670518	0.232973	0.26197
0	H	0.831434	0.749007	0.733006
0	H	0.329935	0.730175	0.156986
0	H	0.171897	0.248883	0.628326
0	H	0.329041	0.746747	0.630151
0	H	0.1684	0.230733	0.159003
0	H	0.67048	0.249725	0.734517
0	H	0.827138	0.730299	0.263247
0	C	0.596416	0.251228	0.327103
0	C	0.903204	0.728151	0.80152
0	C	0.402438	0.749376	0.0892497
0	C	0.0973942	0.231275	0.563754
0	C	0.403166	0.728455	0.565076
0	C	0.0967768	0.251622	0.0902382
0	C	0.598175	0.230794	0.802709
0	C	0.901571	0.747781	0.328028
0	C	0.568634	0.313034	0.298359
0	C	0.930506	0.665824	0.773395
0	C	0.430203	0.811331	0.117447
0	C	0.0694583	0.169548	0.592444
0	C	0.430843	0.66654	0.593716
0	C	0.0695785	0.314116	0.11807
0	C	0.570091	0.168996	0.774623
0	C	0.929749	0.809354	0.29927
0	C	0.511359	0.293382	0.266094
0	C	0.98879	0.684529	0.743573
0	C	0.488274	0.792215	0.147603
0	C	0.0123047	0.189209	0.625036
0	C	0.488142	0.686038	0.626029
0	C	0.0111772	0.295667	0.147719
0	C	0.512031	0.188464	0.744712
0	C	0.986849	0.789362	0.26679
0	H	0.501559	0.298836	0.208606
0	H	0.999854	0.679102	0.686447
0	H	0.499281	0.797788	0.204721
0	H	0.00257115	0.183453	0.682519
0	H	0.497946	0.6805	0.683503
0	H	0.999996	0.30124	0.204788
0	H	0.500891	0.182954	0.68763
0	H	0.996644	0.795034	0.209317
0	C	0.479129	0.274029	0.322551
0	C	0.0198858	0.703073	0.801487
0	C	0.519473	0.773288	0.089934
0	C	0.980044	0.208836	0.568734
0	C	0.52041	0.705394	0.569596
0	C	0.980159	0.277113	0.08974
0	C	0.481069	0.20758	0.802504
0	C	0.0189797	0.769606	0.323156
0	H	0.4358	0.259577	0.323818
0	H	0.0632798	0.717103	0.804467
0	H	0.562845	0.759063	0.0872176
0	H	0.936715	0.223232	0.56767
0	H	0.563756	0.719778	0.568374
0	H	0.936727	0.26325	0.0866274
0	H	0.437778	0.222097	0.805427
0	H	0.062224	0.754891	0.324266
0	O	0.549073	0.338007	0.371897
0	O	0.948001	0.640032	0.847429
0	O	0.448123	0.836855	0.0434236
0	O	0.0496943	0.144875	0.518866
0	O	0.450362	0.64164	0.520131
0	O	0.0523181	0.339786	0.0438808
0	O	0.552223	0.143538	0.848693
0	O	0.949547	0.834024	0.372833
0	C	0.604377	0.362214	0.255755
0	C	0.895028	0.617457	0.729183
0	C	0.394833	0.860034	0.161298
0	C	0.104994	0.12	0.634699
0	C	0.395013	0.617342	0.636184
0	C	0.105074	0.3625	0.162266
0	C	0.605126	0.1201	0.730611
0	C	0.894435	0.859001	0.256865
0	C	0.625917	0.329973	0.184797
0	C	0.876219	0.649747	0.656938
0	C	0.375611	0.828156	0.233578
0	C	0.126481	0.15171	0.705996
0	C	0.373353	0.649548	0.707098
0	C	0.123789	0.330273	0.234586
0	C	0.624256	0.151868	0.658217
0	C	0.872967	0.827317	0.18554
0	H	0.652764	0.362309	0.152713
0	H	0.85029	0.617465	0.623501
0	H	0.349304	0.860574	0.266315
0	H	0.153186	0.119073	0.737872
0	H	0.346609	0.617107	0.739196
0	H	0.149758	0.362554	0.267977
0	H	0.650262	0.119279	0.625294
0	H	0.846314	0.859979	0.153625
0	H	0.59073	0.316171	0.148933
0	H	0.912656	0.66302	0.622987
0	H	0.411861	0.8153	0.268076
0	H	0.0912568	0.165308	0.741933
0	H	0.408485	0.663551	0.74296
0	H	0.0873035	0.317133	0.268518
0	H	0.587948	0.164987	0.623956
0	H	0.908199	0.813686	0.149632
0	H	0.65086	0.28685	0.196548
0	H	0.851368	0.693196	0.667149
0	H	0.35095	0.784544	0.223511
0	H	0.151483	0.19485	0.69466
0	H	0.348245	0.692544	0.695284
0	H	0.148563	0.286744	0.224493
0	H	0.649193	0.195305	0.668156
0	H	0.847918	0.784205	0.196832
0	C	0.65352	0.383769	0.30482
0	C	0.844051	0.597286	0.775678
0	C	0.344124	0.880416	0.114419
0	C	0.154117	0.0984518	0.585605
0	C	0.345954	0.595869	0.586938
0	C	0.156096	0.382529	0.115781
0	C	0.655904	0.0994442	0.777217
0	C	0.845286	0.880789	0.30578
0	H	0.682137	0.343837	0.316674
0	H	0.816797	0.638353	0.787915
0	H	0.316717	0.839481	0.102173
0	H	0.182654	0.138415	0.573578
0	H	0.317226	0.635754	0.575312
0	H	0.183303	0.341395	0.103649
0	H	0.683446	0.140253	0.789498
0	H	0.816758	0.840876	0.318059
0	H	0.638057	0.401336	0.358301
0	H	0.857477	0.577516	0.829085
0	H	0.357831	0.900007	0.0610661
0	H	0.138679	0.0807316	0.532178
0	H	0.361496	0.578631	0.533351
0	H	0.142728	0.402223	0.0623125
0	H	0.642277	0.0797536	0.830551
0	H	0.860696	0.898808	0.359089
0	H	0.678239	0.422158	0.279362
0	H	0.818346	0.561047	0.747799
0	H	0.318494	0.916903	0.142
0	H	0.178974	0.0602181	0.611166
0	H	0.321323	0.557263	0.612102
0	H	0.181835	0.418768	0.143611
0	H	0.681376	0.0629452	0.749405
0	H	0.820425	0.918868	0.279918
0	C	0.569771	0.421622	0.234246
0	C	0.929163	0.557167	0.709751
0	C	0.42933	0.92004	0.180579
0	C	0.0701015	0.0606484	0.655608
0	C	0.429557	0.557892	0.657736
0	C	0.0709699	0.422843	0.181579
0	C	0.570349	0.0602636	0.711531
0	C	0.929535	0.918207	0.235975
0	C	0.593336	0.470666	0.178759
0	C	0.905441	0.506487	0.656358
0	C	0.405465	0.971279	0.233071
0	C	0.0938671	0.0108123	0.710001
0	C	0.405929	0.508821	0.713141
0	C	0.094684	0.473575	0.234924
0	C	0.593892	0.00887759	0.658958
0	C	0.905943	0.968131	0.181548
0	C	0.646762	0.486632	0.156459
0	C	0.851956	0.488897	0.636082
0	C	0.351887	0.989222	0.252377
0	C	0.147369	0.994147	0.731153
0	C	0.352478	0.49284	0.735319
0	C	0.148162	0.491215	0.255179
0	C	0.647374	0.990694	0.639424
0	C	0.852494	0.984982	0.16037
0	H	0.683691	0.464057	0.180766
0	H	0.815125	0.512085	0.659934
0	H	0.315199	0.966123	0.228091
0	H	0.184176	0.0164282	0.706237
0	H	0.315569	0.515423	0.710977
0	H	0.185005	0.46805	0.231325
0	H	0.684202	0.0136733	0.663543
0	H	0.815621	0.962822	0.185263
0	C	0.652648	0.533785	0.100841
0	C	0.845829	0.439291	0.583379
0	C	0.34549	0.0390712	0.304681
0	C	0.15358	0.946638	0.786296
0	C	0.346538	0.445604	0.790837
0	C	0.154264	0.54085	0.307863
0	C	0.653452	0.94077	0.587168
0	C	0.846441	0.0324982	0.105211
0	H	0.694654	0.546205	0.0817685
0	H	0.803724	0.425249	0.56618
0	H	0.303302	0.0532785	0.321251
0	H	0.195676	0.933783	0.80457
0	H	0.304507	0.433133	0.80978
0	H	0.196366	0.554938	0.325059
0	H	0.695548	0.926329	0.570412
0	H	0.804383	0.0454805	0.086877
0	C	0.605987	0.564239	0.0709577
0	C	0.892441	0.408559	0.553788
0	C	0.392007	0.0697037	0.334665
0	C	0.107007	0.916453	0.816708
0	C	0.393164	0.415129	0.820798
0	C	0.107631	0.57154	0.337451
0	C	0.606748	0.910327	0.557441
0	C	0.893105	0.0625435	0.0748454
0	H	0.611298	0.600761	0.0285564
0	H	0.886978	0.370328	0.513425
0	H	0.386396	0.108194	0.374588
0	H	0.112445	0.879642	0.858658
0	H	0.387799	0.378546	0.863115
0	H	0.113079	0.609776	0.377822
0	H	0.612118	0.871768	0.517546
0	H	0.887765	0.0993512	0.0328685
0	C	0.55097	0.548664	0.0945914
0	C	0.947596	0.425924	0.575215
0	C	0.447302	0.0518587	0.314237
0	C	0.0518448	0.932684	0.794125
0	C	0.448205	0.430757	0.797312
0	C	0.0524915	0.554141	0.316022
0	C	0.551575	0.928419	0.578065
0	C	0.948205	0.0461352	0.0975015
0	H	0.514903	0.573561	0.0712491
0	H	0.983632	0.40073	0.552146
0	H	0.483188	0.0769741	0.337796
0	H	0.0158793	0.90793	0.817886
0	H	0.484246	0.405854	0.820689
0	H	0.0164288	0.57931	0.339073
0	H	0.515563	0.903443	0.554697
0	H	0.984235	0.0708048	0.0737827
0	C	0.545073	0.501546	0.147112
0	C	0.953643	0.474867	0.625446
0	C	0.453597	0.00266273	0.264466
0	C	0.045711	0.980136	0.742112
0	C	0.454148	0.477903	0.744837
0	C	0.046471	0.505208	0.265799
0	C	0.545579	0.977699	0.627823
0	C	0.95419	0.998626	0.149479
0	C	0.494279	0.469469	0.184194
0	C	0.00451537	0.507834	0.661213
0	C	0.504555	0.969076	0.229731
0	C	0.994778	0.0128005	0.706145
0	C	0.504978	0.509987	0.707871
0	C	0.995615	0.472263	0.230009
0	C	0.494823	0.0115299	0.662733
0	C	0.0050151	0.965757	0.185466
0	C	0.496622	0.490016	0.265714
0	C	0.00210234	0.489265	0.743383
0	C	0.502973	0.986928	0.147323
0	C	0.996331	0.993182	0.624276
0	C	0.502716	0.489497	0.62634
0	C	0.998077	0.490759	0.147813
0	C	0.496565	0.993685	0.745141
0	C	0.0034884	0.985409	0.267317
0	H	0.465822	0.520973	0.289779
0	H	0.0328614	0.458823	0.768344
0	H	0.534335	0.016734	0.122484
0	H	0.965088	0.962753	0.60035
0	H	0.533534	0.458539	0.602323
0	H	0.967311	0.521155	0.122789
0	H	0.46518	0.96401	0.770126
0	H	0.0347824	0.0157568	0.291265
0	C	0.54166	0.461353	0.295643
0	C	0.957171	0.518847	0.772403
0	C	0.458196	0.957472	0.11791
0	C	0.0411877	0.0218849	0.594052
0	C	0.457699	0.518176	0.596359
0	C	0.0429894	0.461104	0.118856
0	C	0.541489	0.02298	0.774342
0	C	0.958528	0.956876	0.297522
0	H	0.557648	0.462168	0.350984
0	H	0.941161	0.519628	0.827764
0	H	0.442857	0.956015	0.0622328
0	H	0.0566047	0.0217417	0.538397
0	H	0.441747	0.517391	0.541006
0	H	0.0589944	0.460228	0.0634954
0	H	0.557011	0.0244015	0.829933
0	H	0.943073	0.957108	0.353155
0	O	0.518576	0.403472	0.190975
0	O	0.980346	0.574031	0.66582
0	O	0.480022	0.903038	0.225461
0	O	0.0193367	0.0787054	0.699863
0	O	0.480708	0.575995	0.701115
0	O	0.0197579	0.40604	0.225486
0	O	0.519607	0.0774615	0.666855
0	O	0.980248	0.89996	0.191739
0	C	0.436971	0.466223	0.145133
0	C	0.0619342	0.510208	0.622371
0	C	0.561847	0.966633	0.268988
0	C	0.937727	0.0158228	0.745864
0	C	0.562242	0.513182	0.747066
0	C	0.93816	0.469934	0.268735
0	C	0.437464	0.0142202	0.623712
0	C	0.062052	0.962494	0.145743
0	C	0.445376	0.444944	0.0645512
0	C	0.0537117	0.530672	0.54153
0	C	0.553298	0.946191	0.349733
0	C	0.946617	0.0371426	0.82629
0	C	0.553767	0.534514	0.827617
0	C	0.946248	0.449147	0.349486
0	C	0.445953	0.034323	0.542831
0	C	0.0530539	0.941547	0.0651939
0	H	0.471163	0.40125	0.061979
0	H	0.028173	0.574512	0.538306
0	H	0.527878	0.902264	0.352711
0	H	0.972339	0.0809177	0.828403
0	H	0.527888	0.578142	0.830126
0	H	0.971588	0.405149	0.352527
0	H	0.471644	0.0780332	0.539561
0	H	0.0271429	0.897924	0.0628597
0	H	0.46694	0.481731	0.0319778
0	H	0.031886	0.493507	0.509796
0	H	0.531183	0.983256	0.381275
0	H	0.968532	0.000351687	0.858452
0	H	0.532257	0.497694	0.860207
0	H	0.968233	0.486082	0.38139
0	H	0.467751	0.996972	0.511358
0	H	0.0312863	0.978572	0.0332158
0	H	0.405233	0.435026	0.0373238
0	H	0.0938381	0.539959	0.513936
0	H	0.593324	0.937071	0.377644
0	H	0.906648	0.0469733	0.854013
0	H	0.593884	0.544548	0.854876
0	H	0.906058	0.440005	0.376982
0	H	0.405918	0.0436892	0.51504
0	H	0.0929671	0.931602	0.0373913
0	C	0.408802	0.532499	0.148118
0	C	0.0898793	0.443876	0.626297
0	C	0.589942	0.0328764	0.265144
0	C	0.909597	0.949537	0.743136
0	C	0.590353	0.446871	0.744164
0	C	0.910325	0.53633	0.265055
0	C	0.409071	0.948157	0.627923
0	C	0.0905176	0.0285919	0.148776
0	H	0.43584	0.57019	0.125312
0	H	0.0628328	0.406199	0.603508
0	H	0.562619	0.0707212	0.286978
0	H	0.936922	0.911825	0.765284
0	H	0.563251	0.409194	0.766858
0	H	0.937313	0.573831	0.288351
0	H	0.436231	0.910058	0.606324
0	H	0.0632298	0.0666006	0.12723
0	H	0.398091	0.546165	0.204852
0	H	0.100213	0.430552	0.683242
0	H	0.600996	0.0457556	0.208273
0	H	0.898342	0.936092	0.686494
0	H	0.601158	0.433207	0.687458
0	H	0.900296	0.549979	0.20812
0	H	0.397943	0.935595	0.684866
0	H	0.102148	0.0415931	0.20543
0	H	0.369615	0.532768	0.116352
0	H	0.1292	0.443186	0.594785
0	H	0.628938	0.0336768	0.297353
0	H	0.870734	0.949105	0.775622
0	H	0.629483	0.446537	0.776067
0	H	0.870843	0.536929	0.29623
0	H	0.370081	0.947445	0.595697
0	H	0.129179	0.0290128	0.115892
0	C	0.400227	0.417617	0.183238
0	C	0.0984616	0.559003	0.660496
0	C	0.598543	0.917956	0.230967
0	C	0.900808	0.0642709	0.707902
0	C	0.599047	0.561732	0.70896
0	C	0.901602	0.421372	0.230285
0	C	0.401046	0.0632765	0.661567
0	C	0.0987197	0.913612	0.183422
0	C	0.382663	0.356725	0.166609
0	C	0.11596	0.619918	0.643951
0	C	0.616265	0.857121	0.247497
0	C	0.883204	0.125151	0.724497
0	C	0.616675	0.622616	0.725527
0	C	0.88384	0.360506	0.246582
0	C	0.383542	0.124116	0.644658
0	C	0.115867	0.852623	0.166547
0	H	0.392833	0.32887	0.118748
0	H	0.106516	0.647625	0.59567
0	H	0.606954	0.829276	0.295702
0	H	0.893319	0.153143	0.772247
0	H	0.60654	0.6505	0.77338
0	H	0.892991	0.332677	0.29486
0	H	0.392927	0.151657	0.596238
0	H	0.105487	0.82491	0.118686
0	C	0.34787	0.335298	0.226933
0	C	0.149619	0.641854	0.705145
0	C	0.650037	0.835404	0.186327
0	C	0.848487	0.146477	0.664083
0	C	0.651424	0.643982	0.66512
0	C	0.850375	0.338813	0.185098
0	C	0.349898	0.146324	0.705719
0	C	0.150521	0.83078	0.226788
0	H	0.328242	0.289175	0.230664
0	H	0.168678	0.688272	0.708958
0	H	0.66937	0.789128	0.182699
0	H	0.828934	0.19262	0.660386
0	H	0.671078	0.690093	0.661292
0	H	0.831189	0.292477	0.181044
0	H	0.330707	0.192695	0.709048
0	H	0.169746	0.784443	0.230273
0	C	0.346	0.384219	0.277282
0	C	0.151062	0.593218	0.755896
0	C	0.65127	0.884031	0.135552
0	C	0.846709	0.0975593	0.613717
0	C	0.653237	0.595017	0.614832
0	C	0.849299	0.387524	0.134425
0	C	0.348532	0.0979686	0.756831
0	C	0.152726	0.879528	0.277344
0	O	0.377655	0.436934	0.251622
0	O	0.120084	0.540169	0.729647
0	O	0.620118	0.936928	0.161811
0	O	0.87837	0.0448796	0.639467
0	O	0.621564	0.542353	0.640568
0	O	0.880339	0.4404	0.161012
0	O	0.379442	0.0447664	0.730869
0	O	0.121404	0.932585	0.251876
