#******************************************
#
# CIF file created by Zeo++
# Zeo++ is an open source package to
# analyze microporous materials
#
#*******************************************

_cell_length_a		11.091(0)
_cell_length_b		19.7415(0)
_cell_length_c		20.8236(0)
_cell_angle_alpha		90(0)
_cell_angle_beta		90(0)
_cell_angle_gamma		90(0)

_symmetry_space_group_name_H-M		'P1'
_symmetry_Int_Tables_number		1
_symmetry_cell_setting		Monoclinic

loop_
_symmetry_equiv_pos_as_xyz
'+x,+y,+z'

loop_
_atom_site_label
_atom_site_type_symbol
_atom_site_fract_x
_atom_site_fract_y
_atom_site_fract_z
0	O	0.478656	0.507245	0.167962
0	O	0.00871087	0.506202	0.660389
0	O	0.50771	0.00770568	0.427096
0	O	0.981653	0.00734898	0.919535
0	H	0.390259	0.504135	0.183611
0	H	0.0954831	0.5092	0.678424
0	H	0.594814	0.0041548	0.409576
0	H	0.893003	0.0106951	0.904438
0	C	0.548646	0.459397	0.19825
0	C	0.935958	0.553672	0.689521
0	C	0.43506	0.960371	0.397764
0	C	0.0515264	0.0549552	0.888784
0	C	0.672892	0.468491	0.197075
0	C	0.812023	0.544169	0.686198
0	C	0.311032	0.970007	0.400855
0	C	0.175694	0.0458424	0.889623
0	H	0.711525	0.512748	0.173265
0	H	0.774732	0.500312	0.660798
0	H	0.273689	0.0139045	0.426168
0	H	0.214629	0.00174665	0.913591
0	C	0.745319	0.419072	0.226169
0	C	0.737473	0.592341	0.715605
0	C	0.236537	0.921968	0.371272
0	C	0.247866	0.0950668	0.860064
0	H	0.843253	0.424385	0.223818
0	H	0.639915	0.58697	0.711345
0	H	0.13896	0.927555	0.375206
0	H	0.345754	0.0896856	0.862152
0	C	0.69488	0.363811	0.257919
0	C	0.785725	0.646587	0.749885
0	C	0.284725	0.86766	0.337085
0	C	0.197229	0.150279	0.828282
0	C	0.567214	0.3551	0.262299
0	C	0.912984	0.656153	0.755619
0	C	0.412032	0.858098	0.33141
0	C	0.0695411	0.159007	0.824308
0	C	0.496036	0.40196	0.228798
0	C	0.986321	0.6109	0.721465
0	C	0.485278	0.903245	0.365678
0	C	0.998606	0.11229	0.858112
0	C	0.776442	0.311584	0.287709
0	C	0.702284	0.696821	0.781194
0	C	0.201272	0.817446	0.305808
0	C	0.278506	0.202422	0.798129
0	H	0.788766	0.323223	0.339608
0	H	0.690473	0.68318	0.832678
0	H	0.18881	0.83133	0.254427
0	H	0.290262	0.190644	0.746215
0	H	0.868451	0.31287	0.266479
0	H	0.610473	0.695283	0.759883
0	H	0.109674	0.818786	0.327429
0	H	0.370802	0.201154	0.819031
0	C	0.722318	0.240528	0.28019
0	C	0.75401	0.768663	0.77586
0	C	0.253143	0.745603	0.310639
0	C	0.224586	0.273554	0.805663
0	H	0.719025	0.225815	0.228735
0	H	0.756799	0.78495	0.724793
0	H	0.255621	0.728724	0.361524
0	H	0.221923	0.288337	0.857119
0	H	0.780821	0.202565	0.304019
0	H	0.694111	0.80515	0.80081
0	H	0.193448	0.709346	0.285269
0	H	0.282829	0.311399	0.781437
0	C	0.596913	0.23945	0.307483
0	C	0.879402	0.770265	0.803173
0	C	0.378704	0.744135	0.283574
0	C	0.0988539	0.274601	0.778785
0	C	0.521689	0.29704	0.299922
0	C	0.956118	0.713423	0.795025
0	C	0.455366	0.80093	0.291952
0	C	0.0238026	0.21699	0.78665
0	C	0.55655	0.182817	0.341242
0	C	0.918504	0.826817	0.837489
0	C	0.418233	0.687629	0.24933
0	C	0.0580188	0.33112	0.744986
0	H	0.613775	0.137807	0.346212
0	H	0.861069	0.871737	0.842077
0	H	0.360834	0.642698	0.244749
0	H	0.114942	0.376191	0.739825
0	C	0.441395	0.183372	0.368513
0	C	0.0331449	0.826682	0.86524
0	C	0.533001	0.687724	0.221786
0	C	0.942738	0.330375	0.717898
0	O	0.400215	0.129926	0.405148
0	O	0.0729043	0.87987	0.902659
0	O	0.572827	0.634451	0.184504
0	O	0.901184	0.383561	0.681046
0	H	0.459856	0.08997	0.405394
0	H	0.0173372	0.921535	0.899884
0	H	0.516885	0.592929	0.187309
0	H	0.960618	0.423563	0.680484
0	C	0.363095	0.239117	0.361271
0	C	0.11239	0.77129	0.857962
0	C	0.612244	0.743127	0.229222
0	C	0.864675	0.274571	0.725439
0	C	0.407677	0.296393	0.329207
0	C	0.0696159	0.714195	0.825003
0	C	0.568996	0.800129	0.262187
0	C	0.90956	0.217453	0.757592
0	H	0.350755	0.341661	0.327062
0	H	0.12748	0.669291	0.822369
0	H	0.626851	0.844991	0.264951
0	H	0.85273	0.172151	0.760013
0	C	0.23879	0.237896	0.386475
0	C	0.236246	0.773523	0.883703
0	C	0.736278	0.741042	0.203707
0	C	0.740376	0.275584	0.700293
0	C	0.210646	0.283918	0.43575
0	C	0.266121	0.727209	0.932386
0	C	0.766441	0.787521	0.155189
0	C	0.712368	0.229452	0.651105
0	H	0.280812	0.31767	0.453853
0	H	0.198065	0.691367	0.949173
0	H	0.698527	0.823461	0.138436
0	H	0.78271	0.195781	0.633046
0	C	0.0958932	0.286796	0.462698
0	C	0.380076	0.726689	0.960564
0	C	0.880516	0.788081	0.127112
0	C	0.597606	0.22637	0.624228
0	H	0.0750559	0.322366	0.50101
0	H	0.402344	0.691163	0.998583
0	H	0.902957	0.82378	0.0892605
0	H	0.576852	0.19067	0.586038
0	C	0.00963173	0.241445	0.439368
0	C	0.463566	0.774576	0.938871
0	C	0.963772	0.73998	0.148601
0	C	0.511152	0.271741	0.64744
0	O	0.89462	0.238901	0.464654
0	O	0.576975	0.780029	0.965966
0	O	0.0771575	0.734353	0.121466
0	O	0.396054	0.273897	0.62226
0	H	0.883822	0.272262	0.501682
0	H	0.586268	0.748696	0.00468453
0	H	0.0864553	0.765562	0.0826695
0	H	0.385221	0.240357	0.585395
0	C	0.0332151	0.195573	0.389726
0	C	0.438636	0.82016	0.889227
0	C	0.938666	0.694295	0.198122
0	C	0.534782	0.317875	0.696832
0	H	0.962059	0.162408	0.372465
0	H	0.50771	0.855387	0.873124
0	H	0.00755091	0.658904	0.214167
0	H	0.463799	0.351278	0.71385
0	C	0.149151	0.193455	0.362818
0	C	0.323618	0.820201	0.861276
0	C	0.82364	0.694371	0.226107
0	C	0.650631	0.320038	0.723844
0	C	0.172135	0.14285	0.310023
0	C	0.298826	0.87133	0.809144
0	C	0.799229	0.643332	0.278363
0	C	0.673481	0.370511	0.776762
0	H	0.137721	0.0924405	0.324845
0	H	0.330253	0.922054	0.825123
0	H	0.830736	0.592596	0.26251
0	H	0.639876	0.421053	0.76188
0	H	0.270438	0.135271	0.302517
0	H	0.2003	0.87728	0.801226
0	H	0.700791	0.637291	0.286417
0	H	0.771784	0.377687	0.784713
0	C	0.113321	0.163728	0.245761
0	C	0.359722	0.852988	0.744735
0	C	0.860414	0.661877	0.342658
0	C	0.613534	0.349555	0.84072
0	H	0.126492	0.122775	0.210034
0	H	0.345691	0.89468	0.70989
0	H	0.846886	0.620098	0.377476
0	H	0.625194	0.390671	0.876406
0	H	0.0145704	0.168876	0.251718
0	H	0.45861	0.849032	0.751048
0	H	0.959208	0.666107	0.336133
0	H	0.514976	0.343869	0.834182
0	C	0.169746	0.228778	0.223423
0	C	0.306146	0.787864	0.720683
0	C	0.806462	0.72688	0.366752
0	C	0.670725	0.28482	0.863371
0	C	0.282374	0.22736	0.192711
0	C	0.194811	0.788395	0.688637
0	C	0.695108	0.72614	0.398761
0	C	0.783321	0.286716	0.894045
0	H	0.319622	0.179413	0.175741
0	H	0.156613	0.836014	0.671365
0	H	0.657374	0.678468	0.416168
0	H	0.820027	0.33482	0.910975
0	C	0.350837	0.286393	0.18687
0	C	0.128617	0.728635	0.681664
0	C	0.628307	0.785702	0.405566
0	C	0.852608	0.227932	0.89989
0	H	0.440263	0.285359	0.165541
0	H	0.0400163	0.728869	0.659346
0	H	0.539605	0.785313	0.427766
0	H	0.942225	0.229407	0.920988
0	C	0.303895	0.34566	0.21362
0	C	0.176629	0.669622	0.708397
0	C	0.675932	0.844783	0.37876
0	C	0.806211	0.168443	0.873354
0	C	0.184576	0.350672	0.235834
0	C	0.295109	0.665702	0.731935
0	C	0.794429	0.84899	0.355303
0	C	0.686969	0.162982	0.851075
0	H	0.149068	0.399211	0.251855
0	H	0.331666	0.617503	0.74811
0	H	0.830549	0.897247	0.338988
0	H	0.652079	0.114302	0.835051
0	C	0.117611	0.29125	0.24037
0	C	0.359737	0.725833	0.737735
0	C	0.859624	0.789055	0.349674
0	C	0.619328	0.222134	0.846436
0	H	0.0259949	0.292927	0.259794
0	H	0.450319	0.72504	0.75838
0	H	0.950323	0.790128	0.329188
0	H	0.52781	0.220085	0.826917
0	O	0.370446	0.404911	0.224187
0	O	0.112012	0.609401	0.717458
0	O	0.610986	0.904837	0.36953
0	O	0.873065	0.109261	0.86298
0	O	0.283796	0.56455	0.203121
0	O	0.21113	0.454928	0.704634
0	O	0.70871	0.0589045	0.3828
0	O	0.785162	0.950383	0.884703
0	H	0.239098	0.583226	0.162979
0	H	0.257176	0.435806	0.665838
0	H	0.754734	0.0780641	0.421623
0	H	0.740371	0.931591	0.924746
0	C	0.202209	0.540882	0.247714
0	C	0.28755	0.478863	0.751261
0	C	0.785509	0.0352926	0.336243
0	C	0.703568	0.973552	0.839944
0	C	0.0814073	0.531268	0.23312
0	C	0.409847	0.48909	0.741392
0	C	0.90773	0.025085	0.346322
0	C	0.58247	0.982823	0.854414
0	H	0.0472472	0.54268	0.18505
0	H	0.451912	0.477975	0.695097
0	H	0.949452	0.0361484	0.392717
0	H	0.548317	0.971419	0.902485
0	C	0.00498161	0.507336	0.281504
0	C	0.47914	0.513706	0.792602
0	C	0.977515	0.0006445	0.295229
0	C	0.505975	0.00598445	0.805809
0	H	0.908798	0.501861	0.271309
0	H	0.576112	0.520395	0.785917
0	H	0.074457	0.994	0.302126
0	H	0.40962	0.0109154	0.815913
0	C	0.0499694	0.491053	0.341983
0	C	0.426263	0.528978	0.851391
0	C	0.925081	0.985543	0.236265
0	C	0.550899	0.0220755	0.745239
0	C	0.175279	0.49699	0.356966
0	C	0.299307	0.521913	0.861721
0	C	0.798213	0.992578	0.225729
0	C	0.676352	0.0166251	0.730431
0	C	0.249501	0.525881	0.309718
0	C	0.231947	0.493666	0.811509
0	C	0.73038	0.0207342	0.275804
0	C	0.750642	0.988199	0.777862
0	C	0.963178	0.467481	0.392815
0	C	0.50534	0.552163	0.905825
0	C	0.00464635	0.962606	0.181944
0	C	0.463735	0.0448041	0.694283
0	H	0.869555	0.483209	0.381886
0	H	0.601068	0.538515	0.89775
0	H	0.100234	0.976447	0.190197
0	H	0.370661	0.0279799	0.705155
0	H	0.961453	0.411086	0.393745
0	H	0.503282	0.608507	0.90878
0	H	0.00300438	0.906261	0.178992
0	H	0.460197	0.101167	0.69334
0	C	0.00178943	0.494892	0.458541
0	C	0.460607	0.521401	0.96907
0	C	0.960101	0.993331	0.118644
0	C	0.503177	0.0178902	0.628544
0	H	0.996913	0.551058	0.45957
0	H	0.46941	0.465355	0.968508
0	H	0.968526	0.0493154	0.119352
0	H	0.498681	0.961793	0.627215
0	H	0.93876	0.477349	0.496354
0	H	0.517549	0.538832	0.00963531
0	H	0.0174099	0.976109	0.0781387
0	H	0.440282	0.0355905	0.590715
0	C	0.128826	0.472268	0.4714
0	C	0.33089	0.54077	0.978415
0	C	0.830506	0.973746	0.109111
0	C	0.630009	0.0409305	0.615902
0	C	0.214598	0.472615	0.420705
0	C	0.251865	0.543424	0.924872
0	C	0.75119	0.971059	0.162514
0	C	0.715718	0.0408575	0.666621
0	C	0.159206	0.447229	0.531797
0	C	0.290865	0.55948	0.039452
0	C	0.790864	0.954923	0.0480402
0	C	0.660329	0.0659041	0.555426
0	H	0.0938309	0.446034	0.570905
0	H	0.350989	0.557243	0.080858
0	H	0.85107	0.957148	0.00667496
0	H	0.595007	0.0671027	0.516275
0	C	0.275626	0.421742	0.54154
0	C	0.172136	0.581422	0.0464451
0	C	0.672174	0.932874	0.0409119
0	C	0.776676	0.0912748	0.545655
0	O	0.292744	0.391747	0.600373
0	O	0.135987	0.599148	0.108032
0	O	0.636494	0.915152	0.979259
0	O	0.793922	0.12111	0.48678
0	H	0.361374	0.357113	0.601206
0	H	0.101568	0.64765	0.108588
0	H	0.601629	0.866765	0.978679
0	H	0.863124	0.155328	0.485702
0	C	0.365908	0.424974	0.49405
0	C	0.0899199	0.584416	0.994911
0	C	0.589698	0.929849	0.0922947
0	C	0.867004	0.0881144	0.593149
0	C	0.330697	0.447177	0.432767
0	C	0.134002	0.567959	0.933762
0	C	0.633419	0.946391	0.153503
0	C	0.831802	0.0661701	0.654517
0	H	0.396015	0.443645	0.393505
0	H	0.0746481	0.5748	0.892273
0	H	0.573915	0.939563	0.194937
0	H	0.897416	0.0697927	0.693648
0	C	0.491012	0.405319	0.509672
0	C	0.9645	0.605242	0.00817408
0	C	0.464371	0.908944	0.0788638
0	C	0.992036	0.107672	0.577484
0	C	0.53978	0.346831	0.480879
0	C	0.922347	0.666399	0.981635
0	C	0.422118	0.847879	0.10554
0	C	0.0407993	0.166173	0.60625
0	H	0.4867	0.319133	0.445257
0	H	0.978516	0.693615	0.94699
0	H	0.478212	0.820787	0.140282
0	H	0.987782	0.193652	0.642112
0	C	0.653654	0.32297	0.497257
0	C	0.81137	0.693523	0.999274
0	C	0.311192	0.82071	0.0879254
0	C	0.154351	0.190148	0.589525
0	H	0.691129	0.277425	0.475304
0	H	0.779123	0.741206	0.979368
0	H	0.278804	0.773144	0.108036
0	H	0.191644	0.235923	0.611071
0	C	0.718609	0.358519	0.544388
0	C	0.742833	0.658306	0.0451223
0	C	0.242916	0.855716	0.0418231
0	C	0.21929	0.154567	0.542354
0	O	0.827034	0.330597	0.562093
0	O	0.638503	0.689507	0.0650404
0	O	0.13869	0.824401	0.0219256
0	O	0.327673	0.18249	0.524532
0	H	0.863109	0.353271	0.602039
0	H	0.601194	0.666185	0.104316
0	H	0.101526	0.847546	0.982495
0	H	0.363431	0.159806	0.484449
0	C	0.675714	0.418493	0.571719
0	C	0.778256	0.595324	0.0692723
0	C	0.278465	0.918591	0.0174424
0	C	0.176178	0.0945817	0.515092
0	H	0.729623	0.445494	0.607511
0	H	0.721657	0.568714	0.103963
0	H	0.222001	0.945037	0.982551
0	H	0.229715	0.0677022	0.479038
0	C	0.561664	0.442787	0.553609
0	C	0.889062	0.567725	0.0499688
0	C	0.389164	0.946288	0.0368248
0	C	0.0623757	0.0701654	0.533404
0	C	0.520235	0.50867	0.58277
0	C	0.921668	0.498715	0.0756681
0	C	0.422002	0.0152339	0.0110425
0	C	0.0201097	0.00438886	0.504282
0	H	0.536525	0.50784	0.635561
0	H	0.896414	0.494926	0.127106
0	H	0.397178	0.0189575	0.959547
0	H	0.0361806	0.0050137	0.451492
0	H	0.421228	0.515176	0.577263
0	H	0.0208421	0.490786	0.0747323
0	H	0.521171	0.023156	0.0121175
0	H	0.921	0.998344	0.50973
0	C	0.584439	0.570329	0.552409
0	C	0.859567	0.441199	0.0377731
0	C	0.359475	0.072721	0.0486833
0	C	0.0827289	0.942261	0.534526
0	H	0.565788	0.616216	0.581426
0	H	0.869631	0.392864	0.0643787
0	H	0.369469	0.120996	0.0219792
0	H	0.0624005	0.896485	0.505639
0	H	0.683619	0.563466	0.553938
0	H	0.761151	0.450377	0.0349384
0	H	0.261087	0.0633395	0.0513617
0	H	0.182015	0.948273	0.532714
0	C	0.539265	0.578506	0.484797
0	C	0.915842	0.436717	0.972294
0	C	0.415283	0.0774582	0.114256
0	C	0.0381964	0.934531	0.602313
0	C	0.602976	0.548996	0.433466
0	C	0.86134	0.469492	0.919766
0	C	0.360464	0.0448504	0.166751
0	C	0.10242	0.964588	0.653155
0	H	0.694113	0.529934	0.441032
0	H	0.770179	0.489578	0.9242
0	H	0.269251	0.0249305	0.162229
0	H	0.193177	0.983887	0.64504
0	C	0.547553	0.540561	0.37402
0	C	0.92582	0.479802	0.86327
0	C	0.4247	0.0347222	0.223383
0	C	0.0479542	0.973286	0.712808
0	H	0.592378	0.515394	0.334077
0	H	0.888105	0.507225	0.822566
0	H	0.386731	0.00737702	0.264058
0	H	0.0932634	0.99895	0.752297
0	C	0.427143	0.56175	0.367966
0	C	0.0458873	0.457157	0.861426
0	C	0.544754	0.0572183	0.225382
0	C	0.927752	0.952012	0.719569
0	C	0.368085	0.599939	0.414926
0	C	0.0965775	0.416426	0.909195
0	C	0.595673	0.0978721	0.177589
0	C	0.86829	0.913355	0.673135
0	H	0.277859	0.619536	0.406806
0	H	0.186998	0.395937	0.904107
0	H	0.686104	0.118312	0.182706
0	H	0.778188	0.893769	0.681752
0	C	0.425972	0.608084	0.473978
0	C	0.0296168	0.406436	0.96518
0	C	0.528992	0.107816	0.121508
0	C	0.925258	0.904826	0.613869
0	H	0.380263	0.635236	0.512537
0	H	0.0683244	0.377197	0.00452828
0	H	0.567751	0.137127	0.0822218
0	H	0.879132	0.87726	0.575733
0	O	0.372957	0.538774	0.311386
0	O	0.108686	0.481058	0.807773
0	O	0.607123	0.03341	0.279186
0	O	0.874172	0.975338	0.776182
