#******************************************
#
# CIF file created by Zeo++
# Zeo++ is an open source package to
# analyze microporous materials
#
#*******************************************

_cell_length_a		25.7768(0)
_cell_length_b		25.7497(0)
_cell_length_c		6.00427(0)
_cell_angle_alpha		90(0)
_cell_angle_beta		90(0)
_cell_angle_gamma		119.878(0)

_symmetry_space_group_name_H-M		'P1'
_symmetry_Int_Tables_number		1
_symmetry_cell_setting		Monoclinic

loop_
_symmetry_equiv_pos_as_xyz
'+x,+y,+z'

loop_
_atom_site_label
_atom_site_type_symbol
_atom_site_fract_x
_atom_site_fract_y
_atom_site_fract_z
0	N	0.554599	0.376688	0.564126
0	N	0.62005	0.178055	0.230245
0	N	0.818226	0.441879	0.897087
0	N	0.518757	0.604443	0.49981
0	N	0.392167	0.914584	0.164688
0	N	0.0818029	0.477422	0.83303
0	N	0.342623	0.0955512	0.46836
0	N	0.901443	0.247172	0.134513
0	N	0.748905	0.654336	0.802592
0	N	0.107691	0.954259	0.565384
0	N	0.042859	0.153722	0.229969
0	N	0.842113	0.888452	0.896113
0	N	0.321112	0.235731	0.467721
0	N	0.761478	0.0857536	0.133441
0	N	0.910772	0.675658	0.802363
0	N	0.143123	0.725965	0.499306
0	N	0.270695	0.416501	0.165128
0	N	0.57925	0.852966	0.833579
0	C	0.558869	0.424301	0.696322
0	C	0.572551	0.134832	0.362538
0	C	0.861598	0.437638	0.028928
0	C	0.589461	0.486218	0.657627
0	C	0.510712	0.103752	0.323735
0	C	0.89266	0.406674	0.991066
0	H	0.617392	0.505553	0.510978
0	H	0.491424	0.112535	0.177174
0	H	0.883625	0.378182	0.845723
0	C	0.583463	0.522573	0.814757
0	C	0.474354	0.0615432	0.480873
0	C	0.935244	0.412903	0.147177
0	H	0.607	0.57104	0.787774
0	H	0.425957	0.0367999	0.453456
0	H	0.960087	0.389229	0.1198
0	C	0.54766	0.498938	0.00779631
0	C	0.497881	0.0493292	0.674384
0	C	0.947529	0.448926	0.339847
0	C	0.517136	0.436882	0.0462696
0	C	0.559879	0.0807281	0.713145
0	C	0.916055	0.479616	0.378099
0	H	0.48903	0.417605	0.192972
0	H	0.579024	0.0719352	0.860648
0	H	0.924892	0.507775	0.524925
0	C	0.523033	0.39963	0.893307
0	C	0.597208	0.12364	0.559841
0	C	0.87297	0.473829	0.225263
0	C	0.499524	0.335448	0.887342
0	C	0.661357	0.164254	0.553906
0	C	0.832328	0.49747	0.219328
0	C	0.463066	0.289506	0.0325583
0	C	0.707381	0.174037	0.699526
0	C	0.82268	0.533953	0.364481
0	H	0.445622	0.299438	0.18239
0	H	0.697643	0.146966	0.850215
0	H	0.849913	0.551366	0.51465
0	C	0.448837	0.230626	0.981624
0	C	0.766141	0.218677	0.648499
0	C	0.778033	0.548228	0.313679
0	C	0.470815	0.218817	0.783061
0	C	0.777722	0.252221	0.44938
0	C	0.744329	0.526166	0.115118
0	H	0.458358	0.172524	0.74416
0	H	0.82388	0.28606	0.410152
0	H	0.710649	0.53878	0.0752995
0	C	0.506983	0.263921	0.634284
0	C	0.732582	0.243113	0.300343
0	C	0.753101	0.489609	0.967398
0	H	0.522925	0.253496	0.482413
0	H	0.742846	0.269411	0.148304
0	H	0.726446	0.473227	0.816548
0	C	0.52139	0.322671	0.686054
0	C	0.674004	0.198785	0.352368
0	C	0.797555	0.475323	0.0187056
0	C	0.508867	0.637477	0.652275
0	C	0.359034	0.871511	0.316
0	C	0.124741	0.487111	0.984718
0	H	0.486757	0.614047	0.806506
0	H	0.382251	0.872481	0.470372
0	H	0.123788	0.509585	0.138457
0	C	0.525715	0.697741	0.617929
0	C	0.298887	0.828264	0.28045
0	C	0.167791	0.469764	0.950025
0	H	0.517082	0.722893	0.74388
0	H	0.273715	0.794308	0.405539
0	H	0.201831	0.478483	0.0745819
0	C	0.554003	0.724864	0.417809
0	C	0.271957	0.829827	0.080484
0	C	0.166044	0.440939	0.750488
0	H	0.567613	0.77175	0.386203
0	H	0.225215	0.796644	0.0476643
0	H	0.198959	0.426843	0.718786
0	C	0.565205	0.691917	0.259867
0	C	0.304972	0.874279	0.923934
0	C	0.121903	0.429978	0.593257
0	H	0.587586	0.712538	0.104059
0	H	0.284413	0.87638	0.768585
0	H	0.11982	0.407313	0.437727
0	C	0.547126	0.63136	0.305236
0	C	0.365451	0.91648	0.970374
0	C	0.0799248	0.448752	0.638672
0	C	0.540683	0.537303	0.170889
0	C	0.459471	0.00425725	0.838047
0	C	0.992511	0.455554	0.503933
0	H	0.518839	0.514848	0.327765
0	H	0.4816	0.0051892	0.996265
0	H	0.991441	0.476888	0.661655
0	C	0.557784	0.595416	0.140909
0	C	0.40154	0.963074	0.806665
0	C	0.033611	0.438538	0.473948
0	H	0.580677	0.619398	0.989194
0	H	0.377953	0.961778	0.653453
0	H	0.0350399	0.416109	0.321112
0	C	0.306326	0.0532517	0.616351
0	C	0.943745	0.252932	0.282246
0	C	0.74277	0.690499	0.9514
0	H	0.299274	0.0702142	0.775058
0	H	0.92683	0.228838	0.440642
0	H	0.766993	0.697572	0.109333
0	C	0.278975	0.991578	0.571821
0	C	0.00533898	0.287108	0.237828
0	C	0.708279	0.717783	0.908015
0	H	0.249636	0.959122	0.694679
0	H	0.0377977	0.290107	0.360533
0	H	0.704975	0.746969	0.0312666
0	C	0.289803	0.973359	0.36628
0	C	0.0235139	0.316243	0.0324975
0	C	0.679367	0.707213	0.702413
0	H	0.269941	0.925806	0.327199
0	H	0.0710568	0.343759	0.994058
0	H	0.65164	0.72714	0.664165
0	C	0.32636	0.0163153	0.210371
0	C	0.980546	0.310138	0.877194
0	C	0.685987	0.670877	0.545681
0	H	0.334999	0.00290814	0.0489632
0	H	0.993948	0.332263	0.716078
0	H	0.664122	0.662562	0.384092
0	C	0.352202	0.0776364	0.265355
0	C	0.919281	0.274829	0.931966
0	C	0.721472	0.644895	0.599612
0	C	0.411369	0.182867	0.138406
0	C	0.813937	0.229194	0.80602
0	C	0.767561	0.585606	0.471198
0	H	0.400869	0.19814	0.295032
0	H	0.798763	0.203796	0.96349
0	H	0.793095	0.5958	0.628293
0	C	0.389857	0.124034	0.103588
0	C	0.872722	0.266195	0.770779
0	C	0.73037	0.607355	0.437055
0	H	0.398429	0.107213	0.949025
0	H	0.889406	0.291319	0.615581
0	H	0.705211	0.599064	0.281952
0	C	0.59243	0.384406	0.36807
0	C	0.612405	0.208441	0.0346679
0	C	0.787757	0.403782	0.702141
0	H	0.595113	0.421757	0.264524
0	H	0.575151	0.173971	0.930972
0	H	0.822086	0.400827	0.597716
0	H	0.569176	0.343127	0.263914
0	H	0.65379	0.226454	0.931356
0	H	0.769591	0.427069	0.598511
0	C	0.655076	0.397501	0.431692
0	C	0.599273	0.258094	0.097937
0	C	0.738347	0.341264	0.767543
0	H	0.680729	0.441373	0.513477
0	H	0.555303	0.240081	0.178465
0	H	0.756561	0.315524	0.849242
0	H	0.680714	0.398972	0.283195
0	H	0.598056	0.282409	0.94949
0	H	0.713934	0.315483	0.619752
0	H	0.653958	0.363632	0.545251
0	H	0.632953	0.290696	0.211954
0	H	0.705934	0.342716	0.88185
0	C	0.141379	0.00833636	0.686523
0	C	0.988893	0.133223	0.351839
0	C	0.862698	0.854908	0.0176238
0	C	0.156333	0.0672068	0.634031
0	C	0.930189	0.0892474	0.299606
0	C	0.907112	0.840533	0.96677
0	H	0.140537	0.0777019	0.481963
0	H	0.91981	0.06297	0.147511
0	H	0.933845	0.856897	0.816125
0	C	0.192902	0.112345	0.782045
0	C	0.885079	0.080529	0.448156
0	C	0.91571	0.803885	0.114654
0	H	0.20569	0.158698	0.742529
0	H	0.838842	0.0470084	0.408498
0	H	0.949331	0.791175	0.0751316
0	C	0.21483	0.10047	0.980615
0	C	0.89677	0.114089	0.6473
0	C	0.88189	0.781825	0.312978
0	C	0.200229	0.0414852	0.0317291
0	C	0.95564	0.158435	0.698504
0	C	0.837252	0.796128	0.363368
0	H	0.217807	0.0315326	0.181278
0	H	0.965503	0.185624	0.848938
0	H	0.809889	0.778718	0.513193
0	C	0.163345	0.995509	0.887508
0	C	0.00160878	0.167823	0.553257
0	C	0.827791	0.832661	0.217887
0	C	0.139475	0.931244	0.893891
0	C	0.065801	0.208173	0.559523
0	C	0.787194	0.856322	0.223778
0	C	0.14523	0.893839	0.0466251
0	C	0.103205	0.250968	0.713011
0	C	0.744169	0.850495	0.376918
0	H	0.173336	0.912995	0.193384
0	H	0.0841292	0.259822	0.860579
0	H	0.735333	0.822273	0.523562
0	C	0.114591	0.831784	0.00795255
0	C	0.165207	0.282192	0.674359
0	C	0.712788	0.881278	0.339056
0	C	0.078752	0.808227	0.814967
0	C	0.188673	0.270009	0.480621
0	C	0.724956	0.917234	0.146257
0	H	0.0551787	0.759767	0.787583
0	H	0.237066	0.294758	0.452984
0	H	0.700022	0.940823	0.119002
0	C	0.0727653	0.844692	0.658386
0	C	0.152248	0.227884	0.323407
0	C	0.767485	0.923475	0.98988
0	H	0.0447916	0.82545	0.511817
0	H	0.171485	0.219136	0.17662
0	H	0.776391	0.951909	0.844464
0	C	0.103453	0.90662	0.6973
0	C	0.090399	0.196888	0.362299
0	C	0.798627	0.892579	0.0276507
0	C	0.357139	0.278112	0.61594
0	C	0.719124	0.0796485	0.281711
0	C	0.916948	0.639533	0.951216
0	H	0.36439	0.261259	0.77454
0	H	0.736025	0.10394	0.439784
0	H	0.892628	0.632364	0.108963
0	C	0.384026	0.339778	0.571719
0	C	0.657555	0.0449654	0.238087
0	C	0.951561	0.612373	0.907993
0	H	0.413098	0.372305	0.694956
0	H	0.625063	0.0416418	0.361287
0	H	0.954878	0.583192	0.0312225
0	C	0.373096	0.357878	0.366184
0	C	0.639397	0.0156996	0.0329694
0	C	0.980607	0.623068	0.702614
0	H	0.392634	0.405415	0.327337
0	H	0.59187	0.98786	0.995018
0	H	0.00836496	0.603177	0.664474
0	C	0.336844	0.314827	0.210045
0	C	0.682386	0.0220927	0.877199
0	C	0.974012	0.659425	0.545882
0	H	0.32821	0.3282	0.0484682
0	H	0.668971	0.999817	0.716371
0	H	0.995989	0.667859	0.384498
0	C	0.311351	0.25353	0.264841
0	C	0.74366	0.0578841	0.931329
0	C	0.938346	0.685218	0.599601
0	C	0.252426	0.148229	0.137338
0	C	0.84901	0.103777	0.804705
0	C	0.892229	0.744446	0.470907
0	H	0.262994	0.132945	0.293775
0	H	0.864216	0.129273	0.961955
0	H	0.866677	0.734338	0.627921
0	C	0.273833	0.207068	0.102932
0	C	0.790223	0.0667166	0.769792
0	C	0.92938	0.722655	0.436878
0	H	0.26519	0.223876	0.948466
0	H	0.773521	0.0415806	0.614639
0	H	0.954473	0.730884	0.281637
0	C	0.152923	0.692872	0.651685
0	C	0.30366	0.459418	0.317111
0	C	0.536417	0.843049	0.986006
0	H	0.175025	0.716239	0.805999
0	H	0.280242	0.458318	0.471098
0	H	0.537568	0.82046	0.13913
0	C	0.136027	0.632581	0.617136
0	C	0.363865	0.502657	0.282578
0	C	0.493233	0.86028	0.952629
0	H	0.144618	0.607374	0.742939
0	H	0.388914	0.536471	0.408231
0	H	0.459285	0.851383	0.0777515
0	C	0.107748	0.605542	0.416913
0	C	0.391006	0.501256	0.0828917
0	C	0.494733	0.889223	0.753696
0	H	0.0941131	0.558654	0.385196
0	H	0.437789	0.534456	0.0508129
0	H	0.461704	0.903222	0.723015
0	C	0.0965824	0.638543	0.259188
0	C	0.358168	0.456926	0.925763
0	C	0.538759	0.900415	0.595632
0	H	0.074206	0.617973	0.103295
0	H	0.378871	0.454901	0.770651
0	H	0.54067	0.923159	0.440485
0	C	0.11473	0.69912	0.304795
0	C	0.297647	0.414717	0.971216
0	C	0.580856	0.881733	0.639751
0	C	0.121472	0.793301	0.17074
0	C	0.203687	0.327145	0.838202
0	C	0.667998	0.874774	0.503719
0	H	0.143386	0.815671	0.327637
0	H	0.181523	0.326283	0.996294
0	H	0.669079	0.853336	0.661209
0	C	0.104156	0.735143	0.140522
0	C	0.261633	0.368171	0.807231
0	C	0.627037	0.89199	0.474426
0	H	0.0812146	0.711232	0.988803
0	H	0.285344	0.369393	0.654364
0	H	0.625629	0.914527	0.321907
0	C	0.06981	0.946509	0.369455
0	C	0.0506808	0.123378	0.0345999
0	C	0.87265	0.926739	0.701632
0	H	0.0672042	0.909208	0.26578
0	H	0.0878138	0.157994	0.930769
0	H	0.838318	0.929797	0.597563
0	H	0.0929626	0.987796	0.265324
0	H	0.00928033	0.105058	0.931361
0	H	0.890787	0.903535	0.597433
0	C	0.00708277	0.933211	0.433068
0	C	0.0643815	0.0741116	0.0979819
0	C	0.922073	0.989221	0.767729
0	H	0.981396	0.8892	0.513803
0	H	0.108473	0.0925018	0.177918
0	H	0.903828	0.0150155	0.84863
0	H	0.981532	0.93194	0.284601
0	H	0.0656976	0.0498304	0.949605
0	H	0.946734	0.0149776	0.620263
0	H	0.00803285	0.966841	0.54748
0	H	0.0309738	0.0414182	0.212455
0	H	0.954267	0.987681	0.882939
