#******************************************
#
# CIF file created by Zeo++
# Zeo++ is an open source package to
# analyze microporous materials
#
#*******************************************

_cell_length_a		13.036(0)
_cell_length_b		13.3614(0)
_cell_length_c		9.97704(0)
_cell_angle_alpha		90(0)
_cell_angle_beta		90(0)
_cell_angle_gamma		117.588(0)

_symmetry_space_group_name_H-M		'P1'
_symmetry_Int_Tables_number		1
_symmetry_cell_setting		Monoclinic

loop_
_symmetry_equiv_pos_as_xyz
'+x,+y,+z'

loop_
_atom_site_label
_atom_site_type_symbol
_atom_site_fract_x
_atom_site_fract_y
_atom_site_fract_z
0	C	0.451065	0.205342	0.10576
0	C	0.771529	0.210322	0.410453
0	C	0.743964	0.528844	0.746619
0	C	0.525334	0.764962	0.571032
0	C	0.175274	0.733192	0.909629
0	C	0.215505	0.428038	0.242906
0	C	0.338027	0.187926	0.042419
0	C	0.717291	0.0958325	0.342031
0	C	0.859477	0.59109	0.675602
0	C	0.592852	0.708672	0.511838
0	C	0.226174	0.848701	0.84377
0	C	0.0980457	0.35862	0.178331
0	C	0.532486	0.200189	0.997222
0	C	0.766096	0.299342	0.31528
0	C	0.654696	0.436938	0.654044
0	C	0.432762	0.760199	0.470865
0	C	0.182029	0.646077	0.812469
0	C	0.298159	0.516599	0.142092
0	C	0.611059	0.0919577	0.873562
0	C	0.858631	0.494007	0.225012
0	C	0.459493	0.346884	0.554557
0	C	0.328147	0.854623	0.371226
0	C	0.0954857	0.452768	0.721333
0	C	0.494285	0.619336	0.0465258
0	C	0.720406	0.0979896	0.943955
0	C	0.846416	0.589223	0.301539
0	C	0.365139	0.241376	0.626814
0	C	0.2223	0.852556	0.444876
0	C	0.114542	0.361685	0.798727
0	C	0.588189	0.725097	0.119476
0	C	0.785985	0.0558549	0.8512
0	C	0.878331	0.692027	0.210788
0	C	0.264754	0.174588	0.530411
0	C	0.156188	0.894266	0.352434
0	C	0.069575	0.252184	0.717313
0	C	0.698552	0.782235	0.0347371
0	C	0.800895	0.219768	0.986453
0	C	0.722298	0.545684	0.35204
0	C	0.416826	0.16604	0.676604
0	C	0.142736	0.731873	0.491844
0	C	0.243777	0.407375	0.828034
0	C	0.539664	0.807576	0.14732
0	C	0.549154	0.983928	0.787286
0	C	0.972191	0.545686	0.142745
0	C	0.40619	0.410014	0.473746
0	C	0.390451	0.959122	0.279598
0	C	0.983545	0.398774	0.636625
0	C	0.55075	0.563676	0.957991
0	N	0.510277	0.319574	0.173958
0	N	0.703752	0.206029	0.536208
0	N	0.755726	0.469158	0.870485
0	N	0.462538	0.704188	0.697274
0	N	0.244203	0.737775	0.0341453
0	N	0.205503	0.490559	0.365254
0	N	0.528264	0.0978109	0.97146
0	N	0.857932	0.405578	0.315051
0	N	0.5466	0.429698	0.64669
0	N	0.414693	0.85298	0.466442
0	N	0.0913042	0.539155	0.811242
0	N	0.410844	0.534715	0.139815
0	O	0.595654	0.285823	0.932175
0	O	0.682376	0.272547	0.23996
0	O	0.681057	0.374968	0.586489
0	O	0.379176	0.677539	0.39764
0	O	0.264868	0.674108	0.73523
0	O	0.263663	0.565222	0.0629872
0	O	0.488066	0.890226	0.840464
0	O	0.0685703	0.58159	0.198391
0	O	0.36139	0.463691	0.529495
0	O	0.451484	0.0539685	0.328268
0	O	0.886229	0.361014	0.690429
0	O	0.593855	0.505484	0.00775866
0	O	0.567867	0.998182	0.66201
0	O	0.958536	0.552229	0.0177972
0	O	0.410908	0.401292	0.347278
0	O	0.373125	0.940323	0.154435
0	O	0.999153	0.393325	0.511732
0	O	0.55776	0.587557	0.83451
0	H	0.435959	0.13854	0.186576
0	H	0.864337	0.236939	0.441161
0	H	0.710648	0.589996	0.779705
0	H	0.585471	0.856177	0.598967
0	H	0.0823308	0.704394	0.941642
0	H	0.253768	0.371272	0.277309
0	H	0.459648	0.326606	0.253333
0	H	0.668265	0.126075	0.585218
0	H	0.833252	0.517209	0.924507
0	H	0.512194	0.675897	0.75517
0	H	0.278012	0.817755	0.0849274
0	H	0.128367	0.442292	0.420479
0	H	0.590086	0.333084	0.21408
0	H	0.759226	0.272596	0.603333
0	H	0.683066	0.450774	0.934196
0	H	0.442327	0.760471	0.756027
0	H	0.190814	0.670021	0.100575
0	H	0.279024	0.510886	0.429714
0	H	0.527217	0.386334	0.106669
0	H	0.633053	0.219378	0.513235
0	H	0.75611	0.393472	0.845163
0	H	0.38559	0.632142	0.674287
0	H	0.316501	0.727865	0.00942394
0	H	0.203476	0.564839	0.337731
0	H	0.292068	0.1028	0.998773
0	H	0.764609	0.0962597	0.250838
0	H	0.853245	0.637978	0.588153
0	H	0.649094	0.759069	0.429728
0	H	0.176119	0.849345	0.755755
0	H	0.103287	0.307106	0.0953667
0	H	0.279375	0.195576	0.115917
0	H	0.713018	0.0284111	0.407925
0	H	0.927	0.651315	0.741894
0	H	0.647025	0.695738	0.587148
0	H	0.231497	0.914603	0.913276
0	H	0.0333553	0.301983	0.249997
0	H	0.351885	0.248583	0.961039
0	H	0.627231	0.0727687	0.309298
0	H	0.889589	0.531099	0.637803
0	H	0.533424	0.624966	0.469403
0	H	0.315589	0.874132	0.8077
0	H	0.064845	0.414409	0.135073
0	H	0.478097	0.0270047	0.0322257
0	H	0.924041	0.427603	0.386136
0	H	0.522539	0.477204	0.710747
0	H	0.458795	0.921248	0.532048
0	H	0.0276916	0.514093	0.885438
0	H	0.441278	0.503152	0.217225
0	H	0.639946	0.166831	0.804181
0	H	0.78445	0.453257	0.152324
0	H	0.505412	0.316673	0.48152
0	H	0.296067	0.777146	0.305805
0	H	0.170196	0.496703	0.64957
0	H	0.444723	0.648287	0.977187
0	H	0.691312	0.0426067	0.0347297
0	H	0.907508	0.615327	0.388648
0	H	0.331972	0.270456	0.713959
0	H	0.25418	0.909908	0.53377
0	H	0.0655036	0.34329	0.895253
0	H	0.609932	0.697481	0.216558
0	H	0.863278	0.0613239	0.901285
0	H	0.862672	0.756193	0.262167
0	H	0.20196	0.0951069	0.576233
0	H	0.0773692	0.886174	0.401039
0	H	0.0961232	0.193221	0.762857
0	H	0.758001	0.865098	0.0758989
0	H	0.815577	0.107217	0.759742
0	H	0.825962	0.669455	0.118605
0	H	0.295322	0.152045	0.438181
0	H	0.129739	0.845227	0.259213
0	H	0.103981	0.2683	0.614729
0	H	0.679509	0.796317	0.931335
0	H	0.733034	0.967719	0.821399
0	H	0.969873	0.732236	0.181629
0	H	0.218074	0.221715	0.502379
0	H	0.208693	0.983287	0.325231
0	H	0.974621	0.209094	0.711073
0	H	0.745288	0.731685	0.0311527
0	H	0.874258	0.225302	0.044927
0	H	0.71648	0.602898	0.426689
0	H	0.355302	0.0967101	0.738858
0	H	0.071579	0.727984	0.553193
0	H	0.260248	0.351289	0.894374
0	H	0.600376	0.880793	0.204968
0	H	0.755051	0.254625	0.0481515
0	H	0.690718	0.462516	0.399885
0	H	0.495036	0.21396	0.737003
0	H	0.190623	0.698561	0.552522
0	H	0.279436	0.490554	0.876603
0	H	0.458892	0.767103	0.205171
0	H	0.836888	0.275792	0.89904
0	H	0.662569	0.538138	0.270571
0	H	0.440354	0.126819	0.593159
0	H	0.104349	0.673901	0.406611
0	H	0.293759	0.417769	0.735129
0	H	0.521459	0.841028	0.0541295
