#******************************************
#
# CIF file created by Zeo++
# Zeo++ is an open source package to
# analyze microporous materials
#
#*******************************************

_cell_length_a		23.8483(0)
_cell_length_b		23.7695(0)
_cell_length_c		10.6233(0)
_cell_angle_alpha		90(0)
_cell_angle_beta		90(0)
_cell_angle_gamma		90(0)

_symmetry_space_group_name_H-M		'P1'
_symmetry_Int_Tables_number		1
_symmetry_cell_setting		Monoclinic

loop_
_symmetry_equiv_pos_as_xyz
'+x,+y,+z'

loop_
_atom_site_label
_atom_site_type_symbol
_atom_site_fract_x
_atom_site_fract_y
_atom_site_fract_z
0	C	0.345836	0.738471	0.0397828
0	C	0.150322	0.253776	0.535206
0	C	0.00226675	0.59517	0.288537
0	C	0.489239	0.399848	0.784756
0	C	0.644868	0.254563	0.937444
0	C	0.840095	0.740341	0.439017
0	C	0.987819	0.398307	0.687085
0	C	0.500971	0.59353	0.190964
0	C	0.840027	0.243004	0.536183
0	C	0.644909	0.751894	0.0378158
0	C	0.500929	0.0937546	0.78519
0	C	0.987934	0.898118	0.289021
0	C	0.150296	0.750377	0.439977
0	C	0.345197	0.241602	0.937217
0	C	0.489192	0.899722	0.190465
0	C	0.00229709	0.0953599	0.686535
0	C	0.294828	0.760836	0.102098
0	C	0.201298	0.231374	0.597833
0	C	0.979209	0.544242	0.350679
0	C	0.511215	0.450981	0.847895
0	C	0.695801	0.232263	0.874702
0	C	0.788958	0.762517	0.376758
0	C	0.0108493	0.449264	0.625034
0	C	0.47904	0.542362	0.127904
0	C	0.788839	0.265104	0.598353
0	C	0.695918	0.729686	0.100404
0	C	0.478922	0.0426217	0.848247
0	C	0.011031	0.949033	0.351117
0	C	0.201509	0.728198	0.378057
0	C	0.294182	0.263849	0.874722
0	C	0.511183	0.950874	0.12743
0	C	0.979239	0.0444089	0.624534
0	C	0.271846	0.732792	0.209591
0	C	0.224162	0.259351	0.705554
0	C	0.00714482	0.520281	0.457236
0	C	0.483479	0.473074	0.956712
0	C	0.718651	0.260377	0.767144
0	C	0.76602	0.734379	0.269351
0	C	0.982914	0.47322	0.518471
0	C	0.506775	0.520266	0.0190911
0	C	0.765948	0.236963	0.705815
0	C	0.718702	0.757777	0.208072
0	C	0.506661	0.0204097	0.956926
0	C	0.98305	0.973129	0.457459
0	C	0.224513	0.75628	0.270639
0	C	0.271396	0.235838	0.766958
0	C	0.483444	0.973078	0.0187393
0	C	0.00722134	0.0203087	0.518204
0	C	0.295221	0.681551	0.256783
0	C	0.200534	0.310392	0.753168
0	C	0.0589666	0.542518	0.503385
0	C	0.432817	0.448874	0.0042321
0	C	0.695095	0.311524	0.719912
0	C	0.789583	0.683244	0.222063
0	C	0.931075	0.451012	0.472361
0	C	0.557404	0.544506	0.971477
0	C	0.789552	0.185849	0.753127
0	C	0.695067	0.808869	0.255423
0	C	0.557159	0.0447608	0.00498569
0	C	0.931302	0.950831	0.503898
0	C	0.200921	0.80733	0.22294
0	C	0.294902	0.184664	0.719707
0	C	0.432927	0.948751	0.970722
0	C	0.0589327	0.0426512	0.471648
0	C	0.34239	0.65338	0.189166
0	C	0.1526	0.338041	0.687233
0	C	0.0875639	0.589829	0.436642
0	C	0.405007	0.401591	0.93599
0	C	0.647802	0.339517	0.787459
0	C	0.837439	0.655595	0.288295
0	C	0.902462	0.403729	0.539169
0	C	0.585172	0.59185	0.0396095
0	C	0.837658	0.158384	0.687331
0	C	0.647494	0.836665	0.188383
0	C	0.584616	0.0926393	0.938005
0	C	0.902994	0.903018	0.438254
0	C	0.152723	0.834831	0.288337
0	C	0.342306	0.1567	0.787028
0	C	0.405458	0.900899	0.037775
0	C	0.0871692	0.0905781	0.537057
0	C	0.270884	0.809613	0.0568758
0	C	0.225231	0.182529	0.55293
0	C	0.929822	0.521386	0.306576
0	C	0.559394	0.475788	0.802406
0	C	0.719723	0.183383	0.919439
0	C	0.764913	0.811282	0.421797
0	C	0.0602164	0.472147	0.669192
0	C	0.430831	0.517579	0.173309
0	C	0.764719	0.3138	0.553156
0	C	0.719969	0.680927	0.0553795
0	C	0.4307	0.017922	0.802656
0	C	0.0604697	0.971772	0.306956
0	C	0.225469	0.679421	0.423259
0	C	0.270119	0.312569	0.919945
0	C	0.55939	0.975594	0.173075
0	C	0.929777	0.0216841	0.668617
0	H	0.289333	0.831554	0.975428
0	H	0.206674	0.160462	0.471901
0	H	0.907945	0.540546	0.225895
0	H	0.58106	0.458061	0.72003
0	H	0.701313	0.161334	0.000777045
0	H	0.783523	0.833428	0.502679
0	H	0.0820799	0.453	0.74991
0	H	0.409147	0.535311	0.255667
0	H	0.783216	0.335883	0.472088
0	H	0.701714	0.658977	0.973771
0	H	0.408923	0.0359274	0.720643
0	H	0.0824747	0.952322	0.226685
0	H	0.206851	0.657359	0.504209
0	H	0.288386	0.334468	0.00162937
0	H	0.581143	0.957592	0.255138
0	H	0.907753	0.0411328	0.748867
0	C	0.273205	0.655955	0.362243
0	C	0.222508	0.336075	0.85854
0	C	0.0845093	0.519515	0.607816
0	C	0.407536	0.469983	0.110959
0	C	0.716929	0.33712	0.614255
0	C	0.767557	0.657433	0.11692
0	C	0.905531	0.474013	0.367932
0	C	0.582659	0.523419	0.864697
0	C	0.767377	0.159952	0.858028
0	C	0.717048	0.834535	0.360861
0	C	0.582465	0.0234746	0.111541
0	C	0.905673	0.974063	0.608002
0	C	0.223124	0.833062	0.117863
0	C	0.272923	0.15907	0.614197
0	C	0.407624	0.970033	0.864162
0	C	0.0845449	0.0194281	0.367516
0	H	0.291562	0.616925	0.399173
0	H	0.204114	0.375095	0.895341
0	H	0.124032	0.536894	0.643831
0	H	0.368944	0.450978	0.148005
0	H	0.698374	0.37603	0.5772
0	H	0.785864	0.618317	0.0804229
0	H	0.866002	0.456648	0.331944
0	H	0.6212	0.542487	0.827521
0	H	0.785689	0.120834	0.894522
0	H	0.698485	0.873435	0.397952
0	H	0.620852	0.042716	0.149262
0	H	0.866256	0.956533	0.644444
0	H	0.204758	0.872066	0.0808973
0	H	0.291339	0.120064	0.577279
0	H	0.369228	0.9508	0.826467
0	H	0.123916	0.0370074	0.330946
0	C	0.412705	0.63279	0.927346
0	C	0.0814817	0.360156	0.42819
0	C	0.11031	0.661958	0.178759
0	C	0.383753	0.330945	0.67524
0	C	0.577449	0.360234	0.0490146
0	C	0.90847	0.633568	0.54737
0	C	0.879867	0.331531	0.797058
0	C	0.606454	0.662523	0.300294
0	C	0.908658	0.136383	0.428368
0	C	0.577343	0.857439	0.926873
0	C	0.605756	0.164132	0.677711
0	C	0.880554	0.829914	0.180959
0	C	0.0814986	0.856981	0.547031
0	C	0.412552	0.135972	0.048568
0	C	0.384443	0.829366	0.298145
0	C	0.109667	0.163625	0.794385
0	C	0.371997	0.590143	0.921044
0	C	0.121891	0.403153	0.423563
0	C	0.153759	0.622085	0.174573
0	C	0.341014	0.371594	0.670212
0	C	0.618141	0.402908	0.0551773
0	C	0.868061	0.590578	0.552028
0	C	0.836512	0.3715	0.801583
0	C	0.649229	0.621915	0.305247
0	C	0.868271	0.0933658	0.42406
0	C	0.618081	0.900086	0.92131
0	C	0.64886	0.123882	0.672424
0	C	0.836843	0.869485	0.17617
0	C	0.121917	0.89997	0.551512
0	C	0.37182	0.09333	0.0543224
0	C	0.341425	0.869699	0.303739
0	C	0.153377	0.124052	0.799108
0	H	0.343644	0.582883	0.000116182
0	H	0.150426	0.409802	0.502544
0	H	0.161153	0.594088	0.254326
0	H	0.334239	0.400199	0.749176
0	H	0.646568	0.410042	0.976187
0	H	0.839513	0.583939	0.473073
0	H	0.829146	0.399595	0.721991
0	H	0.656016	0.593335	0.226247
0	H	0.839572	0.086951	0.502845
0	H	0.646596	0.90694	0.000265021
0	H	0.655844	0.095262	0.751301
0	H	0.829262	0.897581	0.255705
0	H	0.150682	0.906352	0.472835
0	H	0.343277	0.0864427	0.975436
0	H	0.334481	0.898415	0.225017
0	H	0.160962	0.0959906	0.719525
0	C	0.368496	0.556327	0.814295
0	C	0.124937	0.43805	0.318481
0	C	0.18816	0.618958	0.0688593
0	C	0.306466	0.374762	0.564766
0	C	0.621532	0.4369	0.161671
0	C	0.865055	0.555631	0.657038
0	C	0.80214	0.374567	0.907347
0	C	0.683795	0.618758	0.410676
0	C	0.865384	0.0581294	0.319503
0	C	0.621498	0.9344	0.815329
0	C	0.683405	0.121113	0.566923
0	C	0.802507	0.872179	0.0703094
0	C	0.124732	0.935212	0.65608
0	C	0.368461	0.0590505	0.160365
0	C	0.306885	0.872394	0.409247
0	C	0.187697	0.121306	0.905002
0	H	0.336458	0.523516	0.81062
0	H	0.15679	0.471091	0.316107
0	H	0.221586	0.587515	0.0664946
0	H	0.273575	0.406742	0.562115
0	H	0.653589	0.469697	0.165272
0	H	0.833243	0.522552	0.659348
0	H	0.76876	0.406054	0.909929
0	H	0.716701	0.586794	0.413288
0	H	0.833498	0.0250999	0.317544
0	H	0.653655	0.967126	0.812277
0	H	0.716518	0.0893652	0.564116
0	H	0.768925	0.903444	0.06755
0	H	0.156662	0.968199	0.658224
0	H	0.336342	0.0262907	0.163523
0	H	0.273808	0.904175	0.412245
0	H	0.221264	0.0900236	0.90774
0	C	0.405566	0.564763	0.713606
0	C	0.0877004	0.430423	0.217782
0	C	0.179554	0.655562	0.967191
0	C	0.31421	0.337449	0.464034
0	C	0.584332	0.428645	0.262184
0	C	0.902297	0.563249	0.757744
0	C	0.8107	0.337803	0.00875083
0	C	0.676017	0.656039	0.51146
0	C	0.902795	0.0653917	0.219009
0	C	0.584237	0.926551	0.7148
0	C	0.675323	0.158482	0.466426
0	C	0.811385	0.83535	0.96917
0	C	0.0871842	0.928011	0.756336
0	C	0.405737	0.0669825	0.26085
0	C	0.314907	0.834864	0.509472
0	C	0.178793	0.158082	0.0062361
0	C	0.447704	0.605888	0.722095
0	C	0.045435	0.389394	0.225495
0	C	0.138203	0.69752	0.974557
0	C	0.355114	0.295061	0.471906
0	C	0.542155	0.387559	0.253722
0	C	0.944536	0.604308	0.750075
0	C	0.851966	0.295773	0.00107808
0	C	0.635056	0.698376	0.503681
0	C	0.944773	0.106761	0.225965
0	C	0.542246	0.885223	0.722312
0	C	0.634146	0.200589	0.474674
0	C	0.85288	0.793561	0.977273
0	C	0.0451693	0.886689	0.749161
0	C	0.447693	0.108343	0.253205
0	C	0.356011	0.792696	0.500951
0	C	0.137283	0.199859	0.998222
0	H	0.477643	0.611782	0.645236
0	H	0.0150978	0.384427	0.149082
0	H	0.132585	0.727552	0.897494
0	H	0.360248	0.264691	0.395426
0	H	0.512096	0.381841	0.330415
0	H	0.974887	0.609267	0.826472
0	H	0.85754	0.265635	0.0779468
0	H	0.629883	0.72872	0.580206
0	H	0.975023	0.111652	0.149312
0	H	0.512355	0.879638	0.64521
0	H	0.628841	0.231058	0.398442
0	H	0.858599	0.763309	0.900681
0	H	0.0148208	0.881848	0.825634
0	H	0.477595	0.113995	0.330268
0	H	0.36126	0.762116	0.576981
0	H	0.131531	0.230066	0.0749004
0	C	0.451345	0.640065	0.828238
0	C	0.0422039	0.35414	0.329906
0	C	0.103468	0.700799	0.0796369
0	C	0.390018	0.291702	0.576714
0	C	0.538634	0.353199	0.147868
0	C	0.947757	0.639562	0.64566
0	C	0.886654	0.292543	0.895907
0	C	0.600149	0.701729	0.398886
0	C	0.947849	0.142337	0.329872
0	C	0.538705	0.850527	0.827634
0	C	0.599217	0.203513	0.579523
0	C	0.88759	0.790766	0.0824882
0	C	0.0421739	0.851097	0.645276
0	C	0.451206	0.142963	0.147754
0	C	0.390914	0.789834	0.396049
0	C	0.102595	0.202705	0.892983
0	H	0.483727	0.672375	0.83322
0	H	0.00969944	0.32196	0.334058
0	H	0.0710435	0.73307	0.0835998
0	H	0.422068	0.259063	0.581109
0	H	0.506216	0.320928	0.142919
0	H	0.98028	0.671725	0.6415
0	H	0.918987	0.260188	0.891665
0	H	0.568046	0.734317	0.394565
0	H	0.980181	0.174719	0.333444
0	H	0.506417	0.818095	0.831843
0	H	0.566932	0.235918	0.584123
0	H	0.920114	0.758604	0.0870078
0	H	0.00981058	0.818755	0.641539
0	H	0.483478	0.175409	0.14342
0	H	0.423115	0.757354	0.391194
0	H	0.0700406	0.234838	0.888548
0	C	0.400486	0.530782	0.595536
0	C	0.0928566	0.464774	0.100256
0	C	0.213189	0.649839	0.848878
0	C	0.279999	0.342643	0.346453
0	C	0.589342	0.462682	0.380194
0	C	0.897183	0.528783	0.875114
0	C	0.777089	0.343381	0.127127
0	C	0.710271	0.650801	0.62898
0	C	0.898273	0.0303737	0.102324
0	C	0.588851	0.961207	0.597613
0	C	0.709577	0.153649	0.348849
0	C	0.777767	0.840516	0.850745
0	C	0.0916269	0.962986	0.873113
0	C	0.401188	0.0323156	0.378034
0	C	0.280647	0.839527	0.627065
0	C	0.21238	0.152799	0.124691
0	F	0.405891	0.560537	0.488841
0	F	0.089058	0.435011	0.993142
0	F	0.183237	0.654708	0.742433
0	F	0.309632	0.338271	0.239433
0	F	0.584658	0.432784	0.486867
0	F	0.901588	0.55834	0.982396
0	F	0.807206	0.339067	0.233469
0	F	0.680823	0.655946	0.736075
0	F	0.896923	0.0602612	0.995058
0	F	0.58919	0.931137	0.490638
0	F	0.680154	0.158697	0.24171
0	F	0.807833	0.836228	0.744345
0	F	0.0935685	0.932991	0.980183
0	F	0.401368	0.0623248	0.485096
0	F	0.310222	0.835068	0.734138
0	F	0.182375	0.157575	0.231066
0	F	0.438788	0.489556	0.58414
0	F	0.0536077	0.505004	0.0873367
0	F	0.254338	0.688096	0.835758
0	F	0.239498	0.303662	0.334094
0	F	0.550526	0.503377	0.392312
0	F	0.936064	0.48814	0.887157
0	F	0.73641	0.304664	0.140813
0	F	0.751321	0.689261	0.640435
0	F	0.940782	0.994019	0.0849722
0	F	0.546876	0.998256	0.581209
0	F	0.750302	0.19248	0.337754
0	F	0.737374	0.801464	0.837539
0	F	0.0487608	0.998844	0.891191
0	F	0.442915	0.994926	0.393762
0	F	0.240424	0.80021	0.638721
0	F	0.253176	0.191454	0.13752
0	F	0.351463	0.503686	0.579069
0	F	0.1413	0.493091	0.0859592
0	F	0.240008	0.600476	0.833494
0	F	0.252242	0.391498	0.331553
0	F	0.638046	0.490423	0.395998
0	F	0.848505	0.500924	0.889918
0	F	0.749697	0.392443	0.142188
0	F	0.737357	0.601607	0.644556
0	F	0.852523	0.997554	0.0932974
0	F	0.635105	0.993258	0.587163
0	F	0.73711	0.104728	0.332896
0	F	0.749986	0.889329	0.835225
0	F	0.137029	0.996306	0.881746
0	F	0.354716	0.000618865	0.389037
0	F	0.252507	0.888118	0.64263
0	F	0.239652	0.103719	0.140601
0	N	0.36899	0.687197	0.0942201
0	N	0.126651	0.30456	0.590908
0	N	0.0543645	0.616907	0.341345
0	N	0.438615	0.375755	0.83976
0	N	0.621479	0.305703	0.882799
0	N	0.863445	0.689172	0.38436
0	N	0.935707	0.376594	0.634311
0	N	0.551572	0.617652	0.135901
0	N	0.863573	0.192006	0.591177
0	N	0.621272	0.802812	0.0929321
0	N	0.551154	0.118209	0.841157
0	N	0.936138	0.876089	0.342639
0	N	0.126783	0.80131	0.384635
0	N	0.368659	0.190554	0.882327
0	N	0.438936	0.875319	0.134556
0	N	0.0540569	0.117433	0.632831
0	N	0.419471	0.666302	0.0404599
0	N	0.0756149	0.324861	0.538684
0	N	0.0754373	0.667937	0.289806
0	N	0.418529	0.324738	0.78635
0	N	0.570876	0.326421	0.936324
0	N	0.914421	0.668838	0.436841
0	N	0.914628	0.325569	0.68584
0	N	0.571631	0.668701	0.189247
0	N	0.914599	0.171816	0.538645
0	N	0.570658	0.823428	0.039235
0	N	0.570853	0.169618	0.788842
0	N	0.915449	0.824679	0.29218
0	N	0.0756824	0.82151	0.436795
0	N	0.419249	0.169845	0.935992
0	N	0.41924	0.823911	0.186864
0	N	0.0747465	0.168871	0.683196
0	H	0.445596	0.700717	0.0239477
0	H	0.0502986	0.290075	0.52006
0	H	0.0411611	0.693966	0.271696
0	H	0.453275	0.299415	0.767748
0	H	0.544929	0.291908	0.953152
0	H	0.939733	0.703628	0.455615
0	H	0.948884	0.299481	0.703702
0	H	0.536856	0.693973	0.207975
0	H	0.939744	0.206695	0.519572
0	H	0.544869	0.788838	0.0219556
0	H	0.5359	0.194657	0.770423
0	H	0.949928	0.798885	0.274527
0	H	0.0505157	0.786638	0.455762
0	H	0.445151	0.204376	0.952999
0	H	0.454186	0.798815	0.205015
0	H	0.0402502	0.194632	0.700957
0	O	0.355907	0.605007	0.207816
0	O	0.137849	0.385819	0.708703
0	O	0.135766	0.603154	0.456418
0	O	0.357029	0.387426	0.955402
0	O	0.633931	0.387754	0.768382
0	O	0.852042	0.607721	0.267331
0	O	0.854222	0.390479	0.519598
0	O	0.633099	0.606118	0.019992
0	O	0.852559	0.110644	0.708689
0	O	0.633281	0.88476	0.207988
0	O	0.632231	0.107566	0.958993
0	O	0.855039	0.889137	0.459139
0	O	0.137732	0.882505	0.26653
0	O	0.356283	0.108509	0.767763
0	O	0.357809	0.886038	0.0169193
0	O	0.135023	0.104672	0.51576
0	O	0.370283	0.758041	0.950148
0	O	0.126217	0.234462	0.44492
0	O	0.982439	0.620671	0.200654
0	O	0.50859	0.375897	0.694183
0	O	0.620578	0.235014	0.0272975
0	O	0.864529	0.759996	0.528523
0	O	0.00768467	0.372719	0.774839
0	O	0.481569	0.617519	0.281429
0	O	0.864346	0.262584	0.446424
0	O	0.62075	0.732428	0.947681
0	O	0.481834	0.117348	0.693886
0	O	0.00753291	0.872905	0.20044
0	O	0.125889	0.730854	0.529682
0	O	0.369493	0.261122	0.0271271
0	O	0.508314	0.87607	0.281655
0	O	0.982654	0.120594	0.775051
