#******************************************
#
# CIF file created by Zeo++
# Zeo++ is an open source package to
# analyze microporous materials
#
#*******************************************

_cell_length_a		10.1275(0)
_cell_length_b		10.6648(0)
_cell_length_c		11.937(0)
_cell_angle_alpha		70.0163(0)
_cell_angle_beta		70.1849(0)
_cell_angle_gamma		78.4107(0)

_symmetry_space_group_name_H-M		'P1'
_symmetry_Int_Tables_number		1
_symmetry_cell_setting		Triclinic

loop_
_symmetry_equiv_pos_as_xyz
'+x,+y,+z'

loop_
_atom_site_label
_atom_site_type_symbol
_atom_site_fract_x
_atom_site_fract_y
_atom_site_fract_z
0	F	0.430587	0.374414	0.77889
0	F	0.458966	0.591618	0.199618
0	F	0.411069	0.5671	0.810541
0	F	0.478246	0.398892	0.168075
0	O	0.107605	0.164524	0.835435
0	O	0.781929	0.80132	0.143048
0	O	0.172402	0.281561	0.615855
0	O	0.717095	0.68438	0.362649
0	N	0.202794	0.442428	0.901631
0	N	0.686664	0.523392	0.0769451
0	N	0.295871	0.554683	0.665588
0	N	0.593544	0.411273	0.312986
0	F	0.208854	0.0474359	0.68604
0	F	0.681536	0.918616	0.292368
0	F	0.986176	0.14555	0.707556
0	F	0.9039	0.819696	0.270752
0	C	0.239288	0.478415	0.616707
0	C	0.650127	0.487524	0.361899
0	C	0.226731	0.565692	0.493928
0	C	0.662853	0.40016	0.484597
0	C	0.0508078	0.282452	0.0429952
0	C	0.838685	0.683329	0.935557
0	C	0.0583814	0.370696	0.102308
0	C	0.831116	0.595038	0.876283
0	C	0.197942	0.351899	0.676926
0	C	0.691548	0.614014	0.301628
0	C	0.139381	0.327463	0.912927
0	C	0.750104	0.638359	0.0656196
0	C	0.15446	0.468994	0.0129444
0	C	0.734981	0.496806	0.965644
0	C	0.270494	0.687611	0.474942
0	C	0.619232	0.278173	0.503473
0	C	0.319257	0.676651	0.580376
0	C	0.570393	0.289203	0.398069
0	C	0.153599	0.279391	0.816074
0	C	0.735906	0.686458	0.162457
0	C	0.168029	0.523976	0.416784
0	C	0.721605	0.441819	0.561749
0	H	0.0636729	0.486659	0.469359
0	H	0.825471	0.479947	0.508925
0	H	0.235799	0.439969	0.385206
0	H	0.653309	0.52521	0.594039
0	H	0.15708	0.605533	0.332876
0	H	0.73341	0.359975	0.645212
0	C	0.386271	0.780952	0.590445
0	C	0.50355	0.184877	0.387876
0	H	0.348526	0.796285	0.68345
0	H	0.541227	0.169755	0.294777
0	H	0.368885	0.879506	0.523541
0	H	0.521198	0.0862348	0.45458
0	H	0.502077	0.756724	0.569178
0	H	0.387701	0.208874	0.409329
0	C	0.966053	0.167983	0.094875
0	C	0.923458	0.797804	0.883572
0	H	0.956753	0.129544	0.0230646
0	H	0.932833	0.836295	0.955334
0	H	0.858545	0.191401	0.151776
0	H	0.0308276	0.774399	0.826632
0	H	0.0134905	0.0820084	0.157217
0	H	0.875959	0.883726	0.821248
0	C	0.988476	0.365263	0.235267
0	C	0.900998	0.600479	0.743327
0	H	0.881763	0.330571	0.266443
0	H	0.00764271	0.635385	0.71205
0	H	0.970897	0.467292	0.24606
0	H	0.918825	0.498419	0.732569
0	C	0.264785	0.812909	0.370992
0	C	0.625087	0.152799	0.607301
0	H	0.365874	0.859006	0.334998
0	H	0.523856	0.106787	0.643498
0	H	0.254323	0.789446	0.290626
0	H	0.635899	0.176127	0.68761
0	C	0.189875	0.581574	0.0386179
0	C	0.699531	0.384226	0.939967
0	H	0.177343	0.678918	0.968688
0	H	0.712457	0.286837	0.00968309
0	H	0.300464	0.568637	0.0407678
0	H	0.58881	0.397007	0.938187
0	H	0.124246	0.592366	0.13054
0	H	0.764801	0.373742	0.847921
0	C	0.0753654	0.272151	0.319442
0	C	0.813965	0.693345	0.659186
0	H	0.0235122	0.267279	0.417635
0	H	0.865823	0.698247	0.560988
0	H	0.180443	0.305251	0.292911
0	H	0.708978	0.660059	0.68575
0	H	0.0912922	0.168971	0.313422
0	H	0.797838	0.79656	0.665184
0	B	0.337759	0.486587	0.78943
0	B	0.551657	0.479353	0.189145
0	C	0.141538	0.912225	0.412855
0	C	0.74805	0.0533752	0.565216
0	H	0.137514	0.00589628	0.336708
0	H	0.752039	0.959591	0.641241
0	H	0.148823	0.938822	0.491421
0	H	0.740499	0.027029	0.486591
0	H	0.0401227	0.870659	0.442802
0	H	0.849594	0.0947476	0.53518
0	B	0.116326	0.15091	0.709562
0	B	0.773561	0.814852	0.268863
