#******************************************
#
# CIF file created by Zeo++
# Zeo++ is an open source package to
# analyze microporous materials
#
#*******************************************

_cell_length_a		38.3475(0)
_cell_length_b		38.4765(0)
_cell_length_c		6.99862(0)
_cell_angle_alpha		90(0)
_cell_angle_beta		90(0)
_cell_angle_gamma		119.737(0)

_symmetry_space_group_name_H-M		'P1'
_symmetry_Int_Tables_number		1
_symmetry_cell_setting		Monoclinic

loop_
_symmetry_equiv_pos_as_xyz
'+x,+y,+z'

loop_
_atom_site_label
_atom_site_type_symbol
_atom_site_fract_x
_atom_site_fract_y
_atom_site_fract_z
0	S	0.140686	0.37565	0.317699
0	S	0.612418	0.757067	0.318609
0	S	0.233986	0.850322	0.326941
0	S	0.850015	0.61297	0.691932
0	S	0.377974	0.234051	0.689128
0	S	0.757432	0.13956	0.692617
0	S	0.80353	0.707086	0.65841
0	S	0.28246	0.091784	0.662442
0	S	0.898797	0.186639	0.661252
0	S	0.517976	0.947381	0.0219709
0	S	0.0422553	0.563929	0.0250903
0	S	0.425633	0.472746	0.0247459
0	S	0.47238	0.0422318	0.992714
0	S	0.948072	0.425532	0.988495
0	S	0.564736	0.517124	0.988327
0	S	0.186697	0.282469	0.354908
0	S	0.707621	0.897771	0.351269
0	S	0.0914187	0.802842	0.353841
0	S	0.0637403	0.305	0.220983
0	S	0.683958	0.751875	0.218135
0	S	0.237849	0.926154	0.226751
0	S	0.926336	0.684039	0.792176
0	S	0.306051	0.238108	0.794168
0	S	0.752671	0.0631737	0.789057
0	S	0.728024	0.635498	0.552722
0	S	0.354235	0.0873282	0.55848
0	S	0.902961	0.262459	0.55674
0	S	0.593245	0.019022	0.130178
0	S	0.970503	0.568529	0.12879
0	S	0.421784	0.396965	0.129032
0	S	0.397142	0.970582	0.884427
0	S	0.0197947	0.420864	0.884915
0	S	0.568479	0.592838	0.88368
0	S	0.262072	0.354161	0.460837
0	S	0.635844	0.90214	0.456123
0	S	0.0871565	0.726959	0.458323
0	Si	0.0658332	0.160175	0.627832
0	Si	0.829361	0.898268	0.624772
0	Si	0.0899431	0.923678	0.627826
0	Si	0.924215	0.82905	0.386553
0	Si	0.160624	0.0910966	0.388881
0	Si	0.900221	0.0655643	0.386203
0	Si	0.729116	0.490973	0.962401
0	Si	0.499873	0.235169	0.961018
0	Si	0.755889	0.261241	0.961915
0	Si	0.592336	0.164164	0.716629
0	Si	0.825226	0.424053	0.715963
0	Si	0.567373	0.39708	0.717163
0	Si	0.39793	0.825372	0.298092
0	Si	0.165028	0.565306	0.29756
0	Si	0.422727	0.592574	0.295723
0	Si	0.261037	0.498346	0.0502808
0	Si	0.49008	0.754578	0.0515546
0	Si	0.234329	0.728116	0.0535366
0	O	0.147477	0.452347	0.11524
0	O	0.535796	0.686669	0.115331
0	O	0.301837	0.841854	0.118675
0	O	0.842654	0.536553	0.897085
0	O	0.454419	0.303324	0.895419
0	O	0.688961	0.147628	0.898044
0	O	0.810522	0.783412	0.454149
0	O	0.20585	0.0231147	0.456035
0	O	0.967937	0.178782	0.456449
0	O	0.511233	0.870871	0.225028
0	O	0.11885	0.632734	0.227543
0	O	0.355698	0.479643	0.228309
0	O	0.478979	0.118743	0.789258
0	O	0.871477	0.356713	0.78626
0	O	0.63451	0.510104	0.784454
0	O	0.179624	0.20621	0.558782
0	O	0.78429	0.966429	0.557663
0	O	0.0222332	0.810717	0.558315
0	O	0.129424	0.416167	0.840242
0	O	0.572186	0.705537	0.840544
0	O	0.284546	0.861135	0.844555
0	O	0.860925	0.572794	0.171904
0	O	0.417992	0.284803	0.17004
0	O	0.706075	0.128243	0.172397
0	O	0.792198	0.747362	0.178555
0	O	0.242593	0.0410696	0.182078
0	O	0.950332	0.197674	0.181591
0	O	0.52887	0.906771	0.501176
0	O	0.0829434	0.61509	0.503936
0	O	0.374027	0.461696	0.503844
0	O	0.461458	0.0827551	0.513402
0	O	0.907353	0.374417	0.509677
0	O	0.616178	0.528023	0.508822
0	O	0.198162	0.24215	0.8347
0	O	0.747566	0.948454	0.831651
0	O	0.0397797	0.791754	0.833143
0	O	0.0343383	0.363153	0.903927
0	O	0.626034	0.664688	0.901045
0	O	0.325156	0.956357	0.909503
0	O	0.955849	0.626094	0.110165
0	O	0.36405	0.325274	0.111657
0	O	0.665203	0.0329007	0.105399
0	O	0.69818	0.693636	0.237271
0	O	0.29582	0.999635	0.243494
0	O	0.990982	0.291387	0.242302
0	O	0.623108	0.961261	0.447501
0	O	0.0282401	0.655493	0.446387
0	O	0.334242	0.367643	0.445574
0	O	0.367218	0.028394	0.567768
0	O	0.96196	0.334039	0.566213
0	O	0.65585	0.622055	0.566126
0	O	0.292221	0.296346	0.7762
0	O	0.6943	0.989869	0.770778
0	O	0.999075	0.697923	0.772147
0	O	0.0398635	0.308039	0.835381
0	O	0.680943	0.725187	0.832835
0	O	0.264058	0.949892	0.839132
0	O	0.950067	0.68106	0.178345
0	O	0.309228	0.264737	0.180107
0	O	0.726264	0.0393366	0.176576
0	O	0.704388	0.63904	0.166378
0	O	0.350433	0.059982	0.171272
0	O	0.930463	0.285919	0.169219
0	O	0.617056	0.0162486	0.511367
0	O	0.97341	0.594921	0.513346
0	O	0.39527	0.373801	0.514662
0	O	0.373406	0.973522	0.502721
0	O	0.0170693	0.394523	0.501053
0	O	0.59483	0.616053	0.498447
0	O	0.285684	0.350747	0.847078
0	O	0.639787	0.929479	0.843468
0	O	0.0596657	0.703577	0.845479
0	C	0.144284	0.452423	0.725791
0	C	0.536066	0.683358	0.725427
0	C	0.305179	0.845186	0.730132
0	C	0.845973	0.536525	0.286393
0	C	0.454177	0.30682	0.285021
0	C	0.685409	0.14419	0.286572
0	C	0.806369	0.783598	0.0647616
0	C	0.206476	0.0199965	0.0659965
0	C	0.972319	0.183328	0.0668768
0	C	0.514727	0.870627	0.615722
0	C	0.11942	0.636628	0.617384
0	C	0.351827	0.475909	0.61796
0	C	0.475464	0.118832	0.398491
0	C	0.870892	0.352823	0.396226
0	C	0.638362	0.51379	0.39474
0	C	0.183809	0.205823	0.947972
0	C	0.783691	0.96946	0.947767
0	C	0.0177906	0.806095	0.94788
0	H	0.176966	0.466165	0.71459
0	H	0.521532	0.701583	0.711717
0	H	0.285727	0.812684	0.72004
0	H	0.813376	0.523254	0.300086
0	H	0.467998	0.28801	0.302064
0	H	0.704828	0.176694	0.296562
0	H	0.839067	0.797661	0.0516183
0	H	0.192137	0.0385004	0.0581685
0	H	0.953702	0.15078	0.0533183
0	H	0.482233	0.857333	0.634071
0	H	0.132745	0.617371	0.633509
0	H	0.370582	0.508356	0.634662
0	H	0.508031	0.132485	0.38168
0	H	0.857108	0.371719	0.382607
0	H	0.619809	0.481284	0.379838
0	H	0.151166	0.192112	0.962384
0	H	0.7975	0.95051	0.958421
0	H	0.0365766	0.8386	0.962853
0	H	0.135486	0.472917	0.789352
0	H	0.515999	0.654208	0.789932
0	H	0.334337	0.853175	0.792973
0	H	0.854097	0.515659	0.221265
0	H	0.474807	0.335544	0.218306
0	H	0.656251	0.136164	0.223617
0	H	0.797346	0.803808	0.129911
0	H	0.18627	0.990346	0.125493
0	H	0.0015439	0.192094	0.131368
0	H	0.522522	0.84972	0.548447
0	H	0.140279	0.665178	0.55007
0	H	0.323	0.467814	0.550897
0	H	0.46718	0.139483	0.464602
0	H	0.850386	0.323961	0.461919
0	H	0.667386	0.522298	0.460732
0	H	0.192365	0.185363	0.88162
0	H	0.804322	0.998795	0.886413
0	H	0.988718	0.797654	0.882538
0	H	0.129357	0.440726	0.587995
0	H	0.548269	0.680205	0.588697
0	H	0.308551	0.860029	0.591928
0	H	0.86144	0.548113	0.423197
0	H	0.442182	0.310909	0.420391
0	H	0.682038	0.129378	0.424844
0	H	0.791139	0.771742	0.927612
0	H	0.218752	0.0179121	0.927345
0	H	0.975563	0.198582	0.929893
0	H	0.530931	0.88231	0.7508
0	H	0.107981	0.641054	0.753616
0	H	0.347726	0.460098	0.753943
0	H	0.459585	0.106991	0.262815
0	H	0.882452	0.349041	0.258946
0	H	0.642044	0.529235	0.257991
0	H	0.199326	0.217497	0.0846921
0	H	0.771514	0.972264	0.0853699
0	H	0.0142199	0.790552	0.0842969
0	C	0.00863594	0.295162	0.690691
0	C	0.694045	0.7071	0.687588
0	C	0.282068	0.981429	0.696208
0	C	0.981275	0.69398	0.323245
0	C	0.296206	0.282834	0.325683
0	C	0.708178	0.00778759	0.319358
0	C	0.672897	0.626027	0.0229127
0	C	0.363226	0.0414211	0.0269915
0	C	0.949176	0.317227	0.0256692
0	C	0.648672	0.0299548	0.654334
0	C	0.959603	0.612825	0.656272
0	C	0.377411	0.34234	0.657905
0	C	0.341914	0.959941	0.359233
0	C	0.0308006	0.376641	0.357626
0	C	0.612588	0.647453	0.354848
0	C	0.317134	0.363823	0.990806
0	C	0.626902	0.948026	0.987411
0	C	0.04101	0.672286	0.989103
0	H	0.00205612	0.264644	0.658676
0	H	0.724544	0.731058	0.655261
0	H	0.257408	0.986908	0.660493
0	H	0.987462	0.724299	0.357056
0	H	0.265917	0.25873	0.360111
0	H	0.732821	0.00231688	0.355591
0	H	0.666791	0.595693	0.989453
0	H	0.392685	0.0660294	0.984415
0	H	0.925056	0.32355	0.989831
0	H	0.654223	0.0600692	0.68784
0	H	0.929174	0.588644	0.68797
0	H	0.401779	0.336182	0.690208
0	H	0.336091	0.929697	0.326706
0	H	0.0613166	0.400736	0.326653
0	H	0.588239	0.653698	0.32347
0	H	0.323016	0.394056	0.024969
0	H	0.597589	0.923295	0.0309076
0	H	0.0652164	0.666145	0.0256848
0	H	0.0205129	0.314893	0.564776
0	H	0.674123	0.699102	0.562047
0	H	0.291689	0.970595	0.572147
0	H	0.969565	0.673939	0.448197
0	H	0.31649	0.291296	0.450068
0	H	0.698477	0.0186172	0.443195
0	H	0.684185	0.646021	0.89763
0	H	0.341747	0.0308521	0.906813
0	H	0.958197	0.305778	0.901701
0	H	0.638006	0.0101114	0.780197
0	H	0.97924	0.621373	0.783096
0	H	0.368733	0.353458	0.784287
0	H	0.352853	0.979646	0.232934
0	H	0.0112683	0.368378	0.230524
0	H	0.620984	0.636201	0.228019
0	H	0.305893	0.343701	0.115686
0	H	0.648501	0.958922	0.107111
0	H	0.0317976	0.683666	0.112692
0	H	0.98225	0.295699	0.750001
0	H	0.693828	0.680415	0.746727
0	H	0.307811	0.00815917	0.758913
0	H	0.0078599	0.693938	0.263297
0	H	0.295955	0.309242	0.265936
0	H	0.682473	0.981069	0.256367
0	H	0.646428	0.626085	0.0843514
0	H	0.365239	0.0162999	0.0912398
0	H	0.975462	0.343511	0.0879052
0	H	0.675425	0.0305411	0.592729
0	H	0.959502	0.639218	0.595515
0	H	0.351056	0.315919	0.597115
0	H	0.315244	0.959697	0.419719
0	H	0.0306634	0.350075	0.417619
0	H	0.639088	0.673837	0.414849
0	H	0.343716	0.364007	0.929315
0	H	0.62457	0.9729	0.922435
0	H	0.01485	0.645913	0.926689
0	C	0.132529	0.420311	0.0350174
0	C	0.567914	0.704265	0.0353196
0	C	0.285272	0.85763	0.0392227
0	C	0.857757	0.56862	0.977167
0	C	0.422255	0.28597	0.975263
0	C	0.705475	0.131827	0.977738
0	C	0.795611	0.75144	0.373245
0	C	0.238101	0.0400071	0.376617
0	C	0.95099	0.194068	0.376159
0	C	0.525816	0.902774	0.306338
0	C	0.086843	0.615851	0.30911
0	C	0.373076	0.464856	0.309023
0	C	0.464478	0.0868194	0.70824
0	C	0.903464	0.373621	0.70449
0	C	0.617146	0.524897	0.703644
0	C	0.194645	0.238159	0.640016
0	C	0.752042	0.949528	0.637097
0	C	0.0391433	0.795388	0.638561
0	C	0.0494535	0.342396	0.932178
0	C	0.646604	0.700356	0.929791
0	C	0.28925	0.940769	0.936705
0	C	0.940617	0.646738	0.0815471
0	C	0.343487	0.289604	0.0827382
0	C	0.701121	0.048474	0.0786111
0	C	0.713545	0.673077	0.264951
0	C	0.31645	0.0353423	0.271055
0	C	0.955113	0.276438	0.269234
0	C	0.607677	0.981655	0.417181
0	C	0.00785476	0.619827	0.417403
0	C	0.370082	0.38295	0.417335
0	C	0.382679	0.00801061	0.597598
0	C	0.982463	0.369657	0.596011
0	C	0.620038	0.606805	0.594948
0	C	0.276666	0.316736	0.748575
0	C	0.673708	0.954153	0.743359
0	C	0.0349588	0.712967	0.745369
0	C	0.114049	0.380241	0.124548
0	C	0.608106	0.72625	0.124631
0	C	0.263922	0.876459	0.129858
0	C	0.876318	0.608652	0.887313
0	C	0.382084	0.264174	0.885758
0	C	0.726899	0.113048	0.887366
0	C	0.777463	0.711301	0.461814
0	C	0.278258	0.0614615	0.466608
0	C	0.929123	0.212541	0.465204
0	C	0.543924	0.94302	0.21877
0	C	0.0464918	0.594242	0.221085
0	C	0.3953	0.446695	0.220593
0	C	0.446418	0.0465911	0.795984
0	C	0.943827	0.395228	0.792469
0	C	0.594947	0.543095	0.792002
0	C	0.21277	0.27831	0.551646
0	C	0.711872	0.928076	0.547275
0	C	0.0609861	0.776894	0.549508
0	C	0.0791088	0.347675	0.0809893
0	C	0.641068	0.724372	0.0794302
0	C	0.265423	0.911028	0.0855141
0	C	0.911057	0.641356	0.932025
0	C	0.349007	0.265728	0.932315
0	C	0.725104	0.0782917	0.930428
0	C	0.743086	0.678384	0.414758
0	C	0.311225	0.0596474	0.420603
0	C	0.930734	0.247082	0.418655
0	C	0.578116	0.975985	0.267152
0	C	0.0134605	0.595855	0.267708
0	C	0.394031	0.412333	0.267374
0	C	0.412229	0.0136242	0.747604
0	C	0.97685	0.393601	0.74583
0	C	0.596162	0.577424	0.745055
0	C	0.247093	0.311283	0.59876
0	C	0.678903	0.929856	0.593639
0	C	0.0593234	0.742326	0.59597
0	C	0.104161	0.326915	0.385035
0	C	0.661649	0.769755	0.384002
0	C	0.220205	0.886029	0.391688
0	C	0.886141	0.66202	0.62696
0	C	0.328395	0.220568	0.626794
0	C	0.770571	0.103514	0.625203
0	C	0.767639	0.657783	0.720996
0	C	0.332115	0.105467	0.724201
0	C	0.885298	0.22269	0.723739
0	C	0.553941	0.996805	0.960567
0	C	0.992908	0.551139	0.960908
0	C	0.438926	0.436536	0.961315
0	C	0.436452	0.9928	0.0540065
0	C	0.9974	0.438264	0.0528147
0	C	0.551386	0.553302	0.0515734
0	C	0.222567	0.331767	0.292194
0	C	0.657964	0.884123	0.289763
0	C	0.10489	0.766756	0.291421
0	C	0.104125	0.30661	0.539661
0	C	0.682182	0.789979	0.538054
0	C	0.199288	0.885684	0.544735
0	C	0.88603	0.682508	0.473357
0	C	0.307672	0.199938	0.473932
0	C	0.79114	0.103764	0.470955
0	C	0.767601	0.637319	0.874945
0	C	0.352963	0.126628	0.875692
0	C	0.864581	0.222687	0.876909
0	C	0.554313	0.0174158	0.806523
0	C	0.972465	0.531264	0.806007
0	C	0.459042	0.436097	0.806633
0	C	0.43609	0.972155	0.207874
0	C	0.0178215	0.458098	0.207846
0	C	0.531254	0.553742	0.206203
0	C	0.222638	0.35213	0.137784
0	C	0.637105	0.863084	0.138037
0	C	0.125631	0.766762	0.138362
0	H	0.0785254	0.276098	0.562268
0	H	0.712949	0.794984	0.559111
0	H	0.193645	0.910988	0.565643
0	H	0.911446	0.713193	0.452308
0	H	0.276698	0.194445	0.454424
0	H	0.796405	0.0782719	0.448211
0	H	0.742374	0.606442	0.894356
0	H	0.384166	0.132666	0.893738
0	H	0.858747	0.247898	0.896581
0	H	0.579714	0.048207	0.78633
0	H	0.941698	0.526318	0.784172
0	H	0.464416	0.410586	0.785138
0	H	0.410704	0.94135	0.227837
0	H	0.0485718	0.463014	0.229872
0	H	0.525826	0.579222	0.227517
0	H	0.247881	0.383	0.118054
0	H	0.605907	0.857092	0.120345
0	H	0.131423	0.741522	0.118615
0	C	0.134662	0.318807	0.689787
0	C	0.670097	0.808199	0.689169
0	C	0.180964	0.855142	0.69417
0	C	0.855592	0.670388	0.322865
0	C	0.319803	0.181775	0.322703
0	C	0.809497	0.134405	0.321915
0	C	0.797677	0.649569	0.0270075
0	C	0.340728	0.144681	0.0268924
0	C	0.846646	0.192524	0.0280754
0	C	0.524202	0.00523216	0.654575
0	C	0.984657	0.513208	0.654615
0	C	0.476824	0.466156	0.654806
0	C	0.466178	0.984328	0.35989
0	C	0.00561196	0.476163	0.359144
0	C	0.513493	0.523701	0.358112
0	C	0.192587	0.33979	0.985629
0	C	0.649278	0.845129	0.986148
0	C	0.14366	0.796965	0.987525
0	C	0.158294	0.358685	0.747406
0	C	0.630217	0.791936	0.749151
0	C	0.197468	0.83165	0.753601
0	C	0.832039	0.630562	0.264418
0	C	0.359649	0.19822	0.261787
0	C	0.793072	0.158019	0.263307
0	C	0.821046	0.689354	0.0863865
0	C	0.300902	0.128151	0.0883602
0	C	0.863278	0.169158	0.0878635
0	C	0.500824	0.965407	0.595572
0	C	0.0246802	0.529267	0.596575
0	C	0.460303	0.489693	0.595971
0	C	0.489545	0.0241458	0.418954
0	C	0.965595	0.46012	0.417156
0	C	0.530014	0.500164	0.416963
0	C	0.169159	0.299966	0.927002
0	C	0.689133	0.861519	0.925305
0	C	0.126996	0.82026	0.927084
0	H	0.153776	0.382239	0.684719
0	H	0.606604	0.7639	0.687711
0	H	0.225847	0.836397	0.693242
0	H	0.836586	0.60697	0.326257
0	H	0.383195	0.226462	0.321888
0	H	0.764803	0.153404	0.324678
0	H	0.816256	0.712885	0.0255393
0	H	0.277395	0.0997561	0.0294563
0	H	0.891752	0.174009	0.028195
0	H	0.505693	0.941937	0.656587
0	H	0.0482862	0.557226	0.658708
0	H	0.432069	0.485192	0.657908
0	H	0.484662	0.0476093	0.357972
0	H	0.941985	0.432165	0.35499
0	H	0.558248	0.504662	0.355022
0	H	0.173895	0.276444	0.988473
0	H	0.712728	0.889753	0.985193
0	H	0.0984205	0.81532	0.986143
0	C	0.13997	0.289024	0.783561
0	C	0.699992	0.843273	0.78134
0	C	0.145414	0.849574	0.784876
0	C	0.850229	0.700212	0.22983
0	C	0.289991	0.146469	0.231775
0	C	0.844913	0.139869	0.230212
0	C	0.802998	0.619741	0.120371
0	C	0.370542	0.180001	0.117901
0	C	0.811269	0.187125	0.120063
0	C	0.518777	0.0350773	0.56221
0	C	0.954665	0.478396	0.560796
0	C	0.511933	0.471221	0.561138
0	C	0.47159	0.954481	0.452322
0	C	0.035605	0.510989	0.452948
0	C	0.478379	0.518628	0.451737
0	C	0.187329	0.369586	0.891529
0	C	0.619391	0.810051	0.89383
0	C	0.179152	0.802472	0.896421
0	C	0.116128	0.24797	0.734829
0	C	0.74115	0.860546	0.731156
0	C	0.12793	0.873318	0.734839
0	C	0.874018	0.741249	0.279162
0	C	0.248841	0.129035	0.282335
0	C	0.862326	0.116031	0.279726
0	C	0.779307	0.578693	0.070987
0	C	0.411708	0.197494	0.0673953
0	C	0.793686	0.210837	0.0702761
0	C	0.542423	0.0761806	0.611139
0	C	0.913431	0.461418	0.609413
0	C	0.52937	0.447363	0.610342
0	C	0.447917	0.91336	0.403538
0	C	0.0768321	0.527963	0.404229
0	C	0.460902	0.542449	0.402497
0	C	0.211018	0.410659	0.940651
0	C	0.578217	0.792594	0.94414
0	C	0.196686	0.778745	0.946355
0	C	0.0957771	0.212732	0.695033
0	C	0.776535	0.875571	0.691189
0	C	0.112818	0.893634	0.694439
0	C	0.894337	0.776475	0.319327
0	C	0.213445	0.113883	0.322308
0	C	0.877347	0.095622	0.319806
0	C	0.759072	0.54346	0.0307322
0	C	0.447091	0.212633	0.0272558
0	C	0.778545	0.231085	0.0300082
0	C	0.562523	0.111509	0.650208
0	C	0.87799	0.446554	0.6482
0	C	0.544517	0.427032	0.649521
0	C	0.427788	0.878038	0.364612
0	C	0.112266	0.542824	0.36525
0	C	0.44566	0.562694	0.363367
0	C	0.231222	0.445888	0.981164
0	C	0.542832	0.777369	0.984317
0	C	0.211743	0.758381	0.986369
0	C	0.0905026	0.132807	0.728084
0	C	0.856671	0.950031	0.724822
0	C	0.0380557	0.899287	0.728373
0	C	0.899481	0.856342	0.28618
0	C	0.133328	0.0393455	0.288724
0	C	0.952113	0.0899808	0.285574
0	C	0.753614	0.463603	0.0637939
0	C	0.527031	0.286606	0.0640646
0	C	0.704145	0.237046	0.0635127
0	C	0.567725	0.191411	0.614749
0	C	0.797954	0.372433	0.615002
0	C	0.619127	0.421502	0.616013
0	C	0.422552	0.798121	0.399485
0	C	0.192278	0.616909	0.398791
0	C	0.370979	0.568065	0.396987
0	C	0.236437	0.525637	0.94928
0	C	0.46304	0.703129	0.948581
0	C	0.286059	0.752281	0.951683
0	H	0.121919	0.147153	0.675721
0	H	0.842414	0.96717	0.671371
0	H	0.0211029	0.868053	0.675195
0	H	0.868043	0.841946	0.338327
0	H	0.147478	0.0221413	0.34266
0	H	0.969105	0.12118	0.339205
0	H	0.785152	0.477738	0.0135937
0	H	0.512733	0.303953	0.014496
0	H	0.686951	0.205618	0.0134046
0	H	0.536358	0.177602	0.666931
0	H	0.811956	0.354995	0.667135
0	H	0.636264	0.452851	0.667173
0	H	0.453889	0.8119	0.347048
0	H	0.178153	0.63427	0.347129
0	H	0.353934	0.536692	0.346054
0	H	0.20487	0.511404	0.999009
0	H	0.477382	0.68582	0.998122
0	H	0.303362	0.78365	0.00263132
0	H	0.0753097	0.10144	0.680417
0	H	0.888208	0.965915	0.678062
0	H	0.0218139	0.914642	0.681587
0	H	0.914606	0.887697	0.334013
0	H	0.101748	0.0235033	0.334816
0	H	0.968305	0.0745415	0.331919
0	H	0.738438	0.43222	0.0168781
0	H	0.558535	0.302827	0.0173947
0	H	0.687817	0.252272	0.0165989
0	H	0.583151	0.222902	0.660329
0	H	0.766433	0.356544	0.661465
0	H	0.635421	0.40625	0.662949
0	H	0.407108	0.766638	0.354019
0	H	0.223765	0.632883	0.351888
0	H	0.354578	0.583192	0.349863
0	H	0.251496	0.556969	0.996851
0	H	0.431539	0.686855	0.995278
0	H	0.302272	0.736871	0.997723
0	H	0.0912916	0.133117	0.884922
0	H	0.856259	0.950528	0.881657
0	H	0.0376264	0.898352	0.885176
0	H	0.898745	0.856064	0.12933
0	H	0.133872	0.0388668	0.131896
0	H	0.95253	0.091	0.128766
0	H	0.753632	0.464023	0.220829
0	H	0.526541	0.286029	0.221076
0	H	0.704545	0.236997	0.220511
0	H	0.567239	0.190659	0.457845
0	H	0.798419	0.372534	0.458093
0	H	0.61899	0.421787	0.459146
0	H	0.423128	0.798881	0.556333
0	H	0.191893	0.616777	0.555708
0	H	0.371137	0.567828	0.553853
0	H	0.236534	0.52538	0.792266
0	H	0.463514	0.7037	0.791561
0	H	0.285624	0.752497	0.794653
0	C	0.0141947	0.140922	0.724319
0	C	0.848914	0.866182	0.722302
0	C	0.122169	0.975081	0.724573
0	C	0.975871	0.848379	0.290183
0	C	0.141036	0.123175	0.291632
0	C	0.867978	0.014174	0.28929
0	C	0.67776	0.471489	0.062508
0	C	0.519303	0.203211	0.0611913
0	C	0.78773	0.312422	0.0614672
0	C	0.643806	0.183919	0.617038
0	C	0.805215	0.455619	0.617074
0	C	0.535884	0.345881	0.617804
0	C	0.346519	0.805597	0.398121
0	C	0.185003	0.533688	0.396226
0	C	0.454141	0.643809	0.394888
0	C	0.312428	0.518048	0.950518
0	C	0.470314	0.786317	0.952212
0	C	0.202414	0.677011	0.95331
0	H	0.0140297	0.14412	0.880154
0	H	0.845389	0.862644	0.877973
0	H	0.125945	0.975206	0.880288
0	H	0.976086	0.845296	0.134297
0	H	0.144574	0.126764	0.135982
0	H	0.864367	0.0140729	0.133446
0	H	0.678673	0.475073	0.218524
0	H	0.515523	0.200421	0.21715
0	H	0.790637	0.311588	0.217364
0	H	0.643141	0.180596	0.461013
0	H	0.808515	0.458418	0.46111
0	H	0.533048	0.346449	0.461917
0	H	0.34721	0.808892	0.554111
0	H	0.181629	0.530797	0.552155
0	H	0.457187	0.643252	0.55065
0	H	0.311623	0.514676	0.794442
0	H	0.473978	0.789115	0.796199
0	H	0.199642	0.677939	0.797322
0	H	0.994722	0.109107	0.688423
0	H	0.880922	0.878535	0.687588
0	H	0.10968	0.994645	0.69047
0	H	0.995327	0.880169	0.32658
0	H	0.109023	0.110803	0.32629
0	H	0.880323	0.994516	0.324054
0	H	0.658269	0.439581	0.0287035
0	H	0.551346	0.215441	0.0282032
0	H	0.775249	0.332032	0.0281277
0	H	0.663209	0.215781	0.652165
0	H	0.773222	0.44311	0.652058
0	H	0.548491	0.326458	0.652658
0	H	0.327114	0.773752	0.362968
0	H	0.217016	0.546241	0.361526
0	H	0.441301	0.66307	0.360958
0	H	0.331837	0.549919	0.985182
0	H	0.438275	0.773939	0.98574
0	H	0.214737	0.657267	0.986819
0	H	0.000551424	0.157658	0.659049
0	H	0.832498	0.836037	0.656153
0	H	0.152243	0.988776	0.656453
0	H	0.989516	0.831616	0.355167
0	H	0.15744	0.153307	0.357975
0	H	0.83784	0.000573216	0.356769
0	H	0.66339	0.487705	0.999522
0	H	0.503057	0.172825	0.997957
0	H	0.818179	0.326498	0.997776
0	H	0.658193	0.167733	0.680167
0	H	0.821252	0.485944	0.681115
0	H	0.505407	0.33174	0.681249
0	H	0.332085	0.821764	0.335406
0	H	0.169009	0.503397	0.331791
0	H	0.484535	0.658099	0.330494
0	H	0.326854	0.501845	0.0130125
0	H	0.486488	0.816709	0.0154537
0	H	0.171908	0.662999	0.0164624
0	C	0.064858	0.157638	0.361163
0	C	0.832045	0.899956	0.358184
0	C	0.088245	0.92488	0.361311
0	C	0.925146	0.831583	0.65321
0	C	0.157976	0.0893851	0.655472
0	C	0.901916	0.0643361	0.652757
0	C	0.72837	0.489002	0.6958
0	C	0.502399	0.236855	0.694555
0	C	0.754513	0.262066	0.695357
0	C	0.59344	0.166954	0.983084
0	C	0.822778	0.422602	0.982412
0	C	0.568682	0.396158	0.983527
0	C	0.396716	0.822629	0.0317252
0	C	0.167505	0.566808	0.031105
0	C	0.421369	0.593464	0.0293797
0	C	0.261637	0.500062	0.316839
0	C	0.487788	0.752851	0.318069
0	C	0.235748	0.727139	0.320078
0	H	0.0466597	0.126681	0.310066
0	H	0.86313	0.912454	0.307549
0	H	0.0756992	0.943502	0.311346
0	H	0.943528	0.862515	0.704329
0	H	0.126926	0.0771345	0.706204
0	H	0.914229	0.0455083	0.702693
0	H	0.710434	0.458336	0.641103
0	H	0.533268	0.249436	0.641239
0	H	0.741815	0.280232	0.641301
0	H	0.611817	0.197813	0.0348786
0	H	0.791839	0.41005	0.0347903
0	H	0.581532	0.378083	0.0368629
0	H	0.378577	0.791763	0.979842
0	H	0.198467	0.579613	0.97871
0	H	0.408215	0.61127	0.976124
0	H	0.279734	0.530635	0.372305
0	H	0.456979	0.74045	0.371953
0	H	0.248221	0.708732	0.373632
0	H	0.0954843	0.169947	0.303436
0	H	0.819858	0.918441	0.300824
0	H	0.0697289	0.8945	0.302958
0	H	0.894529	0.819498	0.710719
0	H	0.169918	0.0706731	0.71263
0	H	0.920615	0.0946834	0.711172
0	H	0.759161	0.501598	0.639694
0	H	0.489954	0.255235	0.638605
0	H	0.736297	0.231431	0.639205
0	H	0.56282	0.154977	0.0402968
0	H	0.835097	0.404238	0.0396784
0	H	0.586697	0.426725	0.0405419
0	H	0.427315	0.834899	0.973902
0	H	0.154928	0.584951	0.973886
0	H	0.403592	0.562858	0.972504
0	H	0.23085	0.487657	0.372633
0	H	0.500074	0.734276	0.373283
0	H	0.254175	0.757721	0.376603
0	H	0.0521029	0.175371	0.301017
0	H	0.81418	0.869717	0.297402
0	H	0.118562	0.93707	0.300351
0	H	0.937667	0.813656	0.713532
0	H	0.176068	0.119585	0.71636
0	H	0.871607	0.0523518	0.713567
0	H	0.715639	0.50692	0.637494
0	H	0.484473	0.206532	0.634661
0	H	0.785026	0.274423	0.636464
0	H	0.605918	0.148983	0.0432492
0	H	0.840573	0.452953	0.0420036
0	H	0.538142	0.383575	0.0422911
0	H	0.383921	0.840345	0.971997
0	H	0.149929	0.536428	0.97148
0	H	0.451917	0.606316	0.970373
0	H	0.2741	0.481895	0.374945
0	H	0.50594	0.783131	0.378094
0	H	0.205252	0.714967	0.379055
