#******************************************
#
# CIF file created by Zeo++
# Zeo++ is an open source package to
# analyze microporous materials
#
#*******************************************

_cell_length_a		24.762(0)
_cell_length_b		24.3434(0)
_cell_length_c		9.4871(0)
_cell_angle_alpha		90(0)
_cell_angle_beta		90(0)
_cell_angle_gamma		121.366(0)

_symmetry_space_group_name_H-M		'P1'
_symmetry_Int_Tables_number		1
_symmetry_cell_setting		Monoclinic

loop_
_symmetry_equiv_pos_as_xyz
'+x,+y,+z'

loop_
_atom_site_label
_atom_site_type_symbol
_atom_site_fract_x
_atom_site_fract_y
_atom_site_fract_z
0	C	0.219113	0.878457	0.891798
0	C	0.219469	0.402553	0.839807
0	C	0.677079	0.871676	0.857024
0	C	0.857538	0.209473	0.367293
0	C	0.858324	0.679062	0.358662
0	C	0.396376	0.206683	0.356919
0	H	0.217368	0.920843	0.926231
0	H	0.184148	0.351222	0.858726
0	H	0.726623	0.886436	0.879493
0	H	0.865604	0.170303	0.395798
0	H	0.896034	0.728974	0.382922
0	H	0.347124	0.192557	0.380627
0	H	0.178645	0.848395	0.821355
0	H	0.256345	0.406737	0.767089
0	H	0.676274	0.907235	0.78572
0	H	0.89502	0.243231	0.294154
0	H	0.823361	0.67952	0.286888
0	H	0.396379	0.170978	0.284686
0	C	0.283386	0.898338	0.823762
0	C	0.187854	0.438899	0.786284
0	C	0.639476	0.802598	0.798222
0	C	0.790386	0.182521	0.307782
0	C	0.885991	0.63984	0.299451
0	C	0.434618	0.275874	0.29899
0	H	0.28088	0.859554	0.756764
0	H	0.220049	0.480159	0.717098
0	H	0.599065	0.794616	0.731264
0	H	0.78761	0.217485	0.237119
0	H	0.85133	0.599068	0.23235
0	H	0.47528	0.28367	0.233189
0	C	0.335406	0.920511	0.937422
0	C	0.160797	0.460406	0.906787
0	C	0.617478	0.751125	0.915414
0	C	0.740043	0.1586	0.425966
0	C	0.912518	0.616429	0.417116
0	C	0.456526	0.326914	0.417134
0	H	0.34806	0.968576	0.980954
0	H	0.114264	0.419125	0.943403
0	H	0.657831	0.746346	0.951661
0	H	0.729234	0.110732	0.466786
0	H	0.959048	0.656997	0.455782
0	H	0.416237	0.331646	0.453979
0	C	0.396232	0.924575	0.885251
0	C	0.152584	0.516871	0.864801
0	C	0.562375	0.684315	0.869716
0	C	0.677973	0.153295	0.378795
0	C	0.920762	0.560537	0.370378
0	C	0.511799	0.393744	0.371998
0	H	0.423909	0.96824	0.81785
0	H	0.108009	0.498528	0.80289
0	H	0.581017	0.658809	0.807167
0	H	0.649681	0.109182	0.313086
0	H	0.965223	0.579739	0.307527
0	H	0.493279	0.419337	0.309285
0	C	0.435916	0.923573	0.00952818
0	C	0.154478	0.556826	0.99296
0	C	0.523119	0.643976	0.997278
0	C	0.639363	0.154949	0.504617
0	C	0.919709	0.520051	0.496533
0	C	0.551066	0.434025	0.499619
0	H	0.407932	0.878397	0.0724762
0	H	0.199001	0.574485	0.0546521
0	H	0.507885	0.671618	0.0631543
0	H	0.667925	0.200357	0.566429
0	H	0.875806	0.502363	0.560564
0	H	0.565915	0.406219	0.566026
0	C	0.461774	0.984108	0.10285
0	C	0.0948587	0.519308	0.085973
0	C	0.558686	0.619024	0.0850733
0	C	0.613776	0.094841	0.599483
0	C	0.980061	0.557511	0.587349
0	C	0.515434	0.459232	0.586319
0	H	0.425115	0.977392	0.181829
0	H	0.100815	0.487456	0.161429
0	H	0.592254	0.657102	0.1601
0	H	0.650577	0.102206	0.678685
0	H	0.974929	0.589762	0.663351
0	H	0.481973	0.421332	0.661795
0	C	0.52302	0.999466	0.178477
0	C	0.0806607	0.565414	0.165837
0	C	0.511868	0.55731	0.16562
0	C	0.552276	0.0791841	0.674638
0	C	0.994365	0.511398	0.666679
0	C	0.561926	0.521246	0.666207
0	H	0.521626	0.955432	0.213934
0	H	0.123964	0.607155	0.210103
0	H	0.473053	0.560733	0.214011
0	H	0.553093	0.123069	0.708872
0	H	0.951038	0.469194	0.709634
0	H	0.60117	0.518444	0.714153
0	H	0.565024	0.0283621	0.111165
0	H	0.0563643	0.582721	0.0977049
0	H	0.491507	0.514398	0.0967951
0	H	0.510391	0.0496422	0.607291
0	H	0.0193936	0.494735	0.599042
0	H	0.581699	0.564052	0.597197
0	C	0.255108	0.864935	0.115327
0	C	0.219056	0.437436	0.0768245
0	C	0.639385	0.832483	0.0901399
0	C	0.822636	0.216827	0.598132
0	C	0.855397	0.638847	0.591151
0	C	0.434681	0.244852	0.59019
0	H	0.262305	0.912034	0.149056
0	H	0.175094	0.390676	0.0984928
0	H	0.684748	0.835434	0.113745
0	H	0.819593	0.170991	0.626473
0	H	0.900217	0.68431	0.616101
0	H	0.389362	0.241835	0.614835
0	C	0.235863	0.817084	0.233584
0	C	0.261428	0.466194	0.203708
0	C	0.610553	0.845751	0.215655
0	C	0.840373	0.262716	0.720164
0	C	0.811838	0.609823	0.715993
0	C	0.463621	0.231144	0.714873
0	C	0.280414	0.824914	0.335167
0	C	0.250078	0.502491	0.300774
0	C	0.570159	0.79588	0.307091
0	C	0.794547	0.253518	0.819663
0	C	0.821865	0.573133	0.81452
0	C	0.50394	0.280727	0.80703
0	H	0.329582	0.86368	0.324057
0	H	0.212086	0.511737	0.281028
0	H	0.557949	0.746754	0.284631
0	H	0.745558	0.214848	0.804853
0	H	0.859646	0.563359	0.797314
0	H	0.516374	0.329959	0.785014
0	C	0.261212	0.782776	0.449782
0	C	0.287724	0.52678	0.421421
0	C	0.545612	0.809578	0.425577
0	C	0.812094	0.294102	0.936888
0	C	0.783111	0.549165	0.933609
0	C	0.528055	0.266648	0.925741
0	H	0.295913	0.788987	0.529752
0	H	0.27897	0.5553	0.497083
0	H	0.514026	0.770542	0.497199
0	H	0.77631	0.286875	0.0149078
0	H	0.79091	0.520387	0.0106558
0	H	0.559498	0.305453	0.997992
0	C	0.197997	0.733238	0.462612
0	C	0.336394	0.514769	0.445219
0	C	0.561289	0.872639	0.452933
0	C	0.875082	0.343506	0.954671
0	C	0.734657	0.56176	0.954224
0	C	0.512043	0.203429	0.95249
0	H	0.182391	0.699931	0.552538
0	H	0.366305	0.533823	0.539064
0	H	0.541892	0.883682	0.545324
0	H	0.889351	0.37558	0.0464707
0	H	0.70378	0.542845	0.0466752
0	H	0.53095	0.191995	0.0452502
0	C	0.15369	0.725455	0.36093
0	C	0.347552	0.478424	0.348423
0	C	0.601989	0.922366	0.361913
0	C	0.920719	0.352601	0.855223
0	C	0.724802	0.59851	0.855936
0	C	0.471638	0.154021	0.860506
0	H	0.104196	0.687122	0.372858
0	H	0.385225	0.468632	0.36869
0	H	0.614956	0.971787	0.384926
0	H	0.970049	0.390786	0.870925
0	H	0.687277	0.608774	0.873758
0	H	0.458532	0.104503	0.882964
0	C	0.172538	0.767098	0.245664
0	C	0.310375	0.454321	0.227173
0	C	0.626471	0.90912	0.242876
0	C	0.903484	0.312546	0.737355
0	C	0.763133	0.62238	0.736376
0	C	0.44757	0.16768	0.741306
0	H	0.138369	0.761172	0.164855
0	H	0.319288	0.426523	0.150136
0	H	0.657663	0.94768	0.1702
0	H	0.938712	0.319699	0.658236
0	H	0.755381	0.650617	0.658206
0	H	0.416528	0.129328	0.66809
0	C	0.267116	0.946306	0.614794
0	C	0.143763	0.373645	0.57439
0	C	0.69631	0.819484	0.576899
0	C	0.808114	0.133191	0.102942
0	C	0.929056	0.70264	0.0843457
0	C	0.379294	0.259792	0.0761811
0	H	0.234406	0.962752	0.642829
0	H	0.135098	0.3248	0.592811
0	H	0.743384	0.864085	0.583649
0	H	0.841076	0.116868	0.129722
0	H	0.936857	0.751163	0.102691
0	H	0.33264	0.214647	0.0824352
0	H	0.239799	0.894892	0.584638
0	H	0.193377	0.406243	0.54063
0	H	0.660595	0.831228	0.543393
0	H	0.835008	0.184435	0.0712551
0	H	0.879513	0.669234	0.0508213
0	H	0.415787	0.249008	0.043329
0	C	0.311414	0.986208	0.497886
0	C	0.0988584	0.373247	0.466866
0	C	0.696387	0.771027	0.478398
0	C	0.76332	0.0927453	0.987348
0	C	0.97416	0.703931	0.976091
0	C	0.378452	0.307569	0.976811
0	C	0.285441	0.992671	0.371916
0	C	0.0932206	0.343638	0.336239
0	C	0.723562	0.791452	0.344319
0	C	0.789053	0.0869904	0.860201
0	C	0.979557	0.734296	0.846589
0	C	0.35198	0.286463	0.842329
0	H	0.234535	0.970661	0.361144
0	H	0.119082	0.319545	0.316001
0	H	0.746189	0.841856	0.314881
0	H	0.840012	0.109777	0.848025
0	H	0.953673	0.758557	0.828477
0	H	0.330278	0.236056	0.813757
0	C	0.325228	0.0274967	0.259718
0	C	0.0541957	0.345176	0.231921
0	C	0.721613	0.746786	0.248725
0	C	0.748932	0.0518473	0.74883
0	C	0.0183805	0.733352	0.740959
0	C	0.35352	0.330388	0.745198
0	H	0.305196	0.0329589	0.162413
0	H	0.0498362	0.322357	0.130474
0	H	0.742492	0.76241	0.144479
0	H	0.768684	0.0470853	0.650374
0	H	0.022642	0.756894	0.640585
0	H	0.33323	0.314219	0.640663
0	C	0.390668	0.0553145	0.271843
0	C	0.0209038	0.376207	0.257218
0	C	0.692693	0.681924	0.286341
0	C	0.683448	0.0229072	0.763297
0	C	0.0516876	0.702142	0.76366
0	C	0.38139	0.395275	0.781672
0	H	0.421562	0.0805178	0.182124
0	H	0.992161	0.379272	0.173708
0	H	0.689745	0.646724	0.210251
0	H	0.652319	0.997658	0.674061
0	H	0.0804013	0.699759	0.679232
0	H	0.384242	0.42993	0.704215
0	C	0.416468	0.0496793	0.398226
0	C	0.0257272	0.404687	0.388366
0	C	0.666473	0.661794	0.42072
0	C	0.657965	0.0278205	0.890832
0	C	0.0472137	0.673004	0.893738
0	C	0.406835	0.416062	0.91643
0	H	0.467809	0.071747	0.4076
0	H	0.999826	0.429188	0.407829
0	H	0.643452	0.610827	0.449385
0	H	0.606637	0.00505555	0.901815
0	H	0.0731333	0.648368	0.911208
0	H	0.429151	0.467057	0.944052
0	C	0.377045	0.0156273	0.511503
0	C	0.0642581	0.402842	0.493527
0	C	0.668693	0.706323	0.517098
0	C	0.697729	0.0622983	0.00333648
0	C	0.00894407	0.674334	0.000295398
0	C	0.404924	0.372226	0.0144389
0	H	0.396613	0.0115448	0.611338
0	H	0.0678557	0.424123	0.596957
0	H	0.64925	0.691516	0.6231
0	H	0.678542	0.0660279	0.104134
0	H	0.00559965	0.652502	0.102936
0	H	0.423787	0.387594	0.120701
0	C	0.427877	0.860929	0.748588
0	C	0.211773	0.616917	0.729323
0	C	0.463723	0.642197	0.734545
0	C	0.645414	0.216624	0.242571
0	C	0.86166	0.461351	0.232124
0	C	0.610426	0.435517	0.236975
0	C	0.473125	0.866104	0.871667
0	C	0.208551	0.656303	0.857806
0	C	0.425083	0.599126	0.864073
0	C	0.601418	0.2123	0.367674
0	C	0.86462	0.421363	0.359562
0	C	0.649278	0.478581	0.366526
0	C	0.394798	0.797352	0.671455
0	C	0.273197	0.6494	0.647453
0	C	0.432205	0.672065	0.655286
0	C	0.678556	0.279722	0.163397
0	C	0.800306	0.429231	0.149981
0	C	0.641459	0.40499	0.158194
0	H	0.354991	0.792043	0.607639
0	H	0.28011	0.613709	0.591503
0	H	0.466572	0.712811	0.589197
0	H	0.717742	0.284073	0.0986625
0	H	0.793439	0.465255	0.0952124
0	H	0.606787	0.364069	0.0929896
0	H	0.374622	0.757207	0.748673
0	H	0.313453	0.675641	0.721199
0	H	0.412234	0.691153	0.731581
0	H	0.699574	0.320385	0.239201
0	H	0.759889	0.402507	0.223085
0	H	0.661307	0.385943	0.234951
0	H	0.427445	0.792524	0.601995
0	H	0.274485	0.683402	0.569849
0	H	0.393894	0.636813	0.58768
0	H	0.645775	0.28446	0.0942003
0	H	0.79913	0.395669	0.0713001
0	H	0.679675	0.43977	0.0898177
0	C	0.444506	0.923968	0.534208
0	C	0.147058	0.569001	0.518115
0	C	0.505849	0.622034	0.519732
0	C	0.627742	0.152915	0.0292078
0	C	0.926326	0.509246	0.0206
0	C	0.567036	0.45444	0.0229954
0	H	0.441536	0.889883	0.455051
0	H	0.18267	0.59993	0.440588
0	H	0.474398	0.625303	0.443946
0	H	0.631128	0.187226	0.950138
0	H	0.890794	0.478279	0.942947
0	H	0.597712	0.450355	0.946323
0	H	0.480223	0.973726	0.503309
0	H	0.099777	0.558309	0.484876
0	H	0.515401	0.584301	0.487739
0	H	0.591515	0.103344	0.998171
0	H	0.973651	0.52009	0.987483
0	H	0.557319	0.491952	0.990324
0	H	0.398422	0.918597	0.553642
0	H	0.147642	0.524965	0.536997
0	H	0.549679	0.66849	0.534072
0	H	0.673579	0.157644	0.0483197
0	H	0.925523	0.553175	0.0394441
0	H	0.523289	0.408149	0.0399962
0	C	0.534321	0.872957	0.822952
0	C	0.199338	0.710955	0.818074
0	C	0.370077	0.533656	0.824807
0	C	0.539851	0.205485	0.322349
0	C	0.872549	0.366143	0.317873
0	C	0.70435	0.544093	0.327524
0	H	0.570928	0.892766	0.906509
0	H	0.181266	0.726046	0.907193
0	H	0.350943	0.501458	0.917575
0	H	0.50406	0.186054	0.407637
0	H	0.887874	0.348356	0.407511
0	H	0.725208	0.575454	0.421094
0	H	0.55391	0.905011	0.730633
0	H	0.165561	0.697517	0.730018
0	H	0.384045	0.509662	0.747196
0	H	0.519238	0.17306	0.230925
0	H	0.907929	0.380087	0.233381
0	H	0.689674	0.569193	0.254587
0	H	0.527488	0.825859	0.795019
0	H	0.244485	0.753746	0.7866
0	H	0.330719	0.537027	0.781836
0	H	0.546508	0.25254	0.29468
0	H	0.827429	0.324858	0.281198
0	H	0.742585	0.540523	0.278527
0	C	0.467085	0.79395	0.0583635
0	C	0.285379	0.727041	0.0350386
0	C	0.359993	0.607947	0.0463947
0	C	0.609757	0.285931	0.553669
0	C	0.788576	0.352321	0.539734
0	C	0.717047	0.468708	0.540985
0	H	0.48374	0.765748	0.00314065
0	H	0.301983	0.772566	0.978258
0	H	0.314174	0.57702	0.994156
0	H	0.594182	0.315197	0.499062
0	H	0.773802	0.306605	0.485683
0	H	0.761562	0.498577	0.483297
0	H	0.429631	0.763922	0.133508
0	H	0.325533	0.727748	0.085629
0	H	0.361083	0.649165	0.0959682
0	H	0.647776	0.315245	0.628352
0	H	0.747273	0.350605	0.586718
0	H	0.716242	0.427006	0.587119
0	H	0.506147	0.836295	0.109599
0	H	0.247873	0.717418	0.10976
0	H	0.37054	0.580671	0.121278
0	H	0.570206	0.24422	0.605416
0	H	0.82578	0.363859	0.616838
0	H	0.70957	0.49678	0.619878
0	O	0.206692	0.836247	0.00927907
0	O	0.255026	0.430216	0.96753
0	O	0.648306	0.878073	0.982852
0	O	0.868636	0.249474	0.488656
0	O	0.821204	0.649717	0.483403
0	O	0.425388	0.19963	0.481634
0	O	0.304056	0.955881	0.741276
0	O	0.131636	0.393442	0.709178
0	O	0.683294	0.792614	0.718051
0	O	0.77239	0.12399	0.23122
0	O	0.941846	0.683137	0.21876
0	O	0.39169	0.286679	0.217352
0	O	0.312284	0.874383	0.0525214
0	O	0.203674	0.483372	0.0262336
0	O	0.59432	0.769645	0.0359976
0	O	0.762972	0.203749	0.542712
0	O	0.869009	0.592297	0.535696
0	O	0.479654	0.307893	0.536932
0	O	0.377583	0.869293	0.795383
0	O	0.204402	0.556885	0.770236
0	O	0.523859	0.696001	0.773774
0	O	0.695715	0.208043	0.287799
0	O	0.86903	0.521175	0.275102
0	O	0.550257	0.381854	0.276476
0	O	0.490312	0.923791	0.951388
0	O	0.154014	0.612807	0.941814
0	O	0.466441	0.586764	0.94726
0	O	0.584757	0.154832	0.447942
0	O	0.919545	0.464061	0.443362
0	O	0.608076	0.491004	0.450065
0	O	0.470717	0.0377534	0.0226195
0	O	0.0415975	0.474386	0.00443177
0	O	0.59972	0.608652	0.999164
0	O	0.605042	0.0408815	0.520899
0	O	0.032855	0.602064	0.504201
0	O	0.474179	0.468978	0.499494
0	H	0.501502	0.0470142	0.942383
0	H	0.0331517	0.497702	0.926602
0	H	0.574892	0.577573	0.919725
0	H	0.574233	0.0312895	0.440474
0	H	0.0409364	0.578525	0.426315
0	H	0.498901	0.500078	0.41999
0	O	0.528293	0.0334361	0.306524
0	O	0.0426158	0.532713	0.286962
0	O	0.543889	0.549914	0.283551
0	O	0.547079	0.0457294	0.803516
0	O	0.0315968	0.543983	0.788894
0	O	0.529736	0.528161	0.784447
0	H	0.547923	0.0811338	0.287284
0	H	0.996629	0.503824	0.259143
0	H	0.570636	0.531796	0.252437
0	H	0.527251	0.99798	0.78541
0	H	0.0775955	0.573738	0.762127
0	H	0.503222	0.54667	0.754067
0	O	0.470158	0.915201	0.663117
0	O	0.157385	0.603979	0.64833
0	O	0.473455	0.598454	0.652773
0	O	0.602534	0.162095	0.158486
0	O	0.91597	0.474266	0.150792
0	O	0.600718	0.479085	0.154446
0	O	0.434716	0.812167	0.958686
0	O	0.263922	0.674116	0.936548
0	O	0.410103	0.638945	0.942888
0	O	0.640795	0.266522	0.453006
0	O	0.809542	0.404263	0.4389
0	O	0.663935	0.43836	0.444763
