#******************************************
#
# CIF file created by Zeo++
# Zeo++ is an open source package to
# analyze microporous materials
#
#*******************************************

_cell_length_a		22.2934(0)
_cell_length_b		22.2107(0)
_cell_length_c		7.70276(0)
_cell_angle_alpha		90(0)
_cell_angle_beta		90(0)
_cell_angle_gamma		119.648(0)

_symmetry_space_group_name_H-M		'P1'
_symmetry_Int_Tables_number		1
_symmetry_cell_setting		Monoclinic

loop_
_symmetry_equiv_pos_as_xyz
'+x,+y,+z'

loop_
_atom_site_label
_atom_site_type_symbol
_atom_site_fract_x
_atom_site_fract_y
_atom_site_fract_z
0	O	0.0964215	0.261278	0.261244
0	O	0.75487	0.846235	0.928005
0	O	0.166765	0.923703	0.595428
0	O	0.917855	0.760812	0.759638
0	O	0.259675	0.175881	0.427803
0	O	0.846948	0.0977515	0.0954573
0	O	0.139367	0.363994	0.00313841
0	O	0.652217	0.787352	0.670208
0	O	0.224933	0.879526	0.337195
0	O	0.875187	0.657445	0.504275
0	O	0.36201	0.234383	0.167647
0	O	0.7889	0.141845	0.835947
0	O	0.681824	0.23065	0.129275
0	O	0.784488	0.458162	0.797693
0	O	0.572907	0.334517	0.467577
0	O	0.332616	0.789474	0.630307
0	O	0.228375	0.562146	0.299957
0	O	0.44205	0.686825	0.966969
0	O	0.199127	0.299698	0.393484
0	O	0.716224	0.911013	0.0602942
0	O	0.103726	0.820926	0.729206
0	O	0.815766	0.722796	0.894705
0	O	0.298684	0.110973	0.557672
0	O	0.910644	0.201022	0.226666
0	O	0.0728924	0.27406	0.825663
0	O	0.741448	0.810822	0.490325
0	O	0.20229	0.947026	0.159523
0	O	0.941621	0.747002	0.325869
0	O	0.272279	0.210478	0.989148
0	O	0.810714	0.073767	0.658202
0	C	0.044115	0.385274	0.44879
0	C	0.632145	0.670722	0.11453
0	C	0.341502	0.973215	0.782598
0	C	0.970733	0.637976	0.951729
0	C	0.383653	0.35157	0.611651
0	C	0.672143	0.0486548	0.281558
0	H	0.0946183	0.427087	0.496087
0	H	0.59027	0.679677	0.161943
0	H	0.331057	0.92208	0.832327
0	H	0.920293	0.596458	0.000226729
0	H	0.425694	0.342587	0.657474
0	H	0.682434	0.0998624	0.330383
0	H	0.00648688	0.378662	0.55165
0	H	0.639063	0.639642	0.217218
0	H	0.373001	0.0110243	0.884506
0	H	0.00855077	0.64516	0.0545895
0	H	0.377291	0.382795	0.714958
0	H	0.640643	0.0110558	0.383828
0	C	0.0466461	0.318012	0.429795
0	C	0.698808	0.740124	0.096043
0	C	0.273355	0.973447	0.76207
0	C	0.96814	0.705115	0.93037
0	C	0.316831	0.282218	0.594631
0	C	0.740342	0.0484786	0.26176
0	H	0.0589917	0.30215	0.55539
0	H	0.714313	0.768212	0.221717
0	H	0.245268	0.962423	0.8874
0	H	0.955907	0.721599	0.0552388
0	H	0.301752	0.254354	0.720588
0	H	0.768297	0.0595872	0.387289
0	H	0.995187	0.274222	0.391643
0	H	0.742832	0.732389	0.0582224
0	H	0.282574	0.0255924	0.721988
0	H	0.0195328	0.74875	0.891136
0	H	0.272759	0.290073	0.558021
0	H	0.731147	0.996265	0.222407
0	C	0.100043	0.328449	0.292402
0	C	0.688138	0.783189	0.958626
0	C	0.229958	0.919748	0.625959
0	C	0.914589	0.69393	0.792824
0	C	0.326737	0.238782	0.456755
0	C	0.783873	0.101997	0.125363
0	H	0.153744	0.366756	0.331789
0	H	0.649708	0.798859	0.997681
0	H	0.214668	0.865806	0.666137
0	H	0.86095	0.655607	0.832662
0	H	0.365072	0.222844	0.494751
0	H	0.799308	0.155992	0.165264
0	C	0.0803716	0.347367	0.117781
0	C	0.669685	0.744936	0.783661
0	C	0.268039	0.938596	0.450997
0	C	0.934223	0.674382	0.619031
0	C	0.344706	0.276813	0.281524
0	C	0.745824	0.0829544	0.950335
0	H	0.0329508	0.302965	0.0621747
0	H	0.714268	0.742106	0.727385
0	H	0.272182	0.986703	0.394889
0	H	0.981668	0.718466	0.562601
0	H	0.29993	0.279499	0.226072
0	H	0.741742	0.0347552	0.894913
0	C	0.075755	0.414137	0.130386
0	C	0.603606	0.673832	0.795743
0	C	0.337896	0.940594	0.463698
0	C	0.938647	0.607579	0.633937
0	C	0.410797	0.347994	0.292185
0	C	0.675873	0.0808033	0.962456
0	H	0.128449	0.457689	0.164458
0	H	0.559951	0.683311	0.828725
0	H	0.326896	0.886823	0.496928
0	H	0.885919	0.564287	0.66883
0	H	0.454573	0.338568	0.324012
0	H	0.686651	0.134516	0.995492
0	C	0.0554786	0.430513	0.952965
0	C	0.587995	0.637447	0.618109
0	C	0.374373	0.959845	0.2863
0	C	0.958729	0.590332	0.457381
0	C	0.425711	0.384126	0.114326
0	C	0.639469	0.0613875	0.784998
0	H	0.0634309	0.483876	0.954909
0	H	0.534945	0.592363	0.619051
0	H	0.41768	0.948775	0.287539
0	H	0.951019	0.537067	0.461384
0	H	0.478833	0.429095	0.113976
0	H	0.5961	0.0723756	0.785913
0	H	0.0907304	0.430406	0.851618
0	H	0.588023	0.672902	0.516821
0	H	0.338354	0.925892	0.184536
0	H	0.923204	0.589688	0.355807
0	H	0.425082	0.348443	0.0127815
0	H	0.675482	0.0952825	0.683149
0	C	0.98064	0.378885	0.904508
0	C	0.639933	0.613932	0.570685
0	C	0.400887	0.0358991	0.239668
0	C	0.0334375	0.641931	0.407796
0	C	0.373797	0.407856	0.0684548
0	C	0.61305	0.985327	0.738681
0	H	0.974745	0.32675	0.88514
0	H	0.691876	0.659741	0.55288
0	H	0.356778	0.0452899	0.223605
0	H	0.0392137	0.693961	0.387393
0	H	0.32177	0.362125	0.0511016
0	H	0.657207	0.976047	0.722235
0	H	0.9677	0.393514	0.778274
0	H	0.626127	0.586949	0.44381
0	H	0.427381	0.0478626	0.112312
0	H	0.0462301	0.626965	0.281857
0	H	0.38741	0.434946	0.941687
0	H	0.586384	0.973235	0.611547
0	C	0.930451	0.376018	0.0453255
0	C	0.642143	0.566044	0.711475
0	C	0.450156	0.083849	0.380474
0	C	0.0837752	0.64523	0.54868
0	C	0.371886	0.455713	0.209828
0	C	0.56396	0.937374	0.879737
0	H	0.933449	0.42757	0.0533361
0	H	0.590456	0.518403	0.719076
0	H	0.495843	0.0760232	0.387615
0	H	0.080653	0.593633	0.55771
0	H	0.423502	0.503465	0.216751
0	H	0.518169	0.945039	0.886861
0	C	0.949202	0.357816	0.225165
0	C	0.660134	0.602879	0.891291
0	C	0.413631	0.0670696	0.560491
0	C	0.0653271	0.663998	0.7282
0	C	0.354494	0.418908	0.389667
0	C	0.600531	0.954369	0.0597136
0	H	0.944742	0.305297	0.212946
0	H	0.712439	0.650355	0.879394
0	H	0.368303	0.0758889	0.549195
0	H	0.0701244	0.716635	0.715247
0	H	0.302265	0.371281	0.37849
0	H	0.646052	0.945846	0.0485307
0	C	0.0251668	0.409359	0.277754
0	C	0.608552	0.627976	0.943292
0	C	0.384409	0.989718	0.612132
0	C	0.989339	0.612952	0.781699
0	C	0.406434	0.394092	0.440044
0	C	0.62932	0.0317122	0.110906
0	C	0.89707	0.351852	0.365689
0	C	0.66568	0.556427	0.0324874
0	C	0.462038	0.117133	0.701306
0	C	0.117492	0.669849	0.868547
0	C	0.349063	0.465234	0.531394
0	C	0.552342	0.904232	0.200715
0	H	0.910077	0.335903	0.489995
0	H	0.682287	0.585722	0.156045
0	H	0.433321	0.106307	0.825326
0	H	0.104832	0.686205	0.992712
0	H	0.333047	0.43604	0.655153
0	H	0.581143	0.915223	0.324639
0	H	0.902209	0.403363	0.389972
0	H	0.614015	0.511282	0.0579696
0	H	0.505086	0.106791	0.725844
0	H	0.111975	0.61821	0.893345
0	H	0.400649	0.51064	0.555916
0	H	0.509128	0.914311	0.225356
0	C	0.821617	0.300229	0.317459
0	C	0.715938	0.530237	0.984976
0	C	0.492138	0.194172	0.654101
0	C	0.193006	0.720981	0.819633
0	C	0.298215	0.490854	0.485249
0	C	0.522453	0.827195	0.153667
0	H	0.813486	0.246863	0.312348
0	H	0.769559	0.573993	0.980151
0	H	0.450677	0.207837	0.650225
0	H	0.201499	0.774471	0.813979
0	H	0.244749	0.446798	0.480945
0	H	0.564023	0.813705	0.149638
0	H	0.786396	0.299845	0.419162
0	H	0.715375	0.494921	0.0871123
0	H	0.528561	0.227249	0.755924
0	H	0.228228	0.721311	0.921249
0	H	0.2987	0.525983	0.587812
0	H	0.486153	0.794078	0.255693
0	C	0.804847	0.320469	0.141155
0	C	0.695347	0.493294	0.80892
0	C	0.528339	0.208306	0.477354
0	C	0.209372	0.70029	0.643431
0	C	0.318182	0.527875	0.309201
0	C	0.486088	0.812947	0.977102
0	C	0.856142	0.319771	0.00424494
0	C	0.697464	0.545974	0.671451
0	C	0.473862	0.160156	0.341051
0	C	0.158108	0.70128	0.506915
0	C	0.316244	0.475466	0.171147
0	C	0.540339	0.861083	0.840333
0	H	0.854479	0.268404	0.0144591
0	H	0.74907	0.594514	0.682115
0	H	0.427212	0.166814	0.354119
0	H	0.160024	0.752748	0.517251
0	H	0.264806	0.426715	0.182001
0	H	0.586997	0.854425	0.852707
0	C	0.823403	0.319873	0.828123
0	C	0.696857	0.512695	0.495363
0	C	0.506847	0.191578	0.16422
0	C	0.190491	0.700919	0.330431
0	C	0.3164	0.508826	0.995533
0	C	0.507071	0.829679	0.663695
0	H	0.841464	0.298445	0.723423
0	H	0.720989	0.552375	0.392188
0	H	0.467146	0.177892	0.0621251
0	H	0.172832	0.722994	0.226393
0	H	0.292652	0.469294	0.891878
0	H	0.546649	0.843153	0.561365
0	H	0.836065	0.372682	0.7881
0	H	0.643841	0.475653	0.452506
0	H	0.542086	0.173081	0.119845
0	H	0.17699	0.647944	0.289869
0	H	0.369286	0.546443	0.952873
0	H	0.472012	0.848416	0.619458
0	C	0.74517	0.273926	0.86015
0	C	0.738453	0.475168	0.528469
0	C	0.546764	0.270428	0.197582
0	C	0.268876	0.745907	0.361913
0	C	0.273992	0.545428	0.0296664
0	C	0.466749	0.750837	0.697077
0	H	0.715326	0.296015	0.80007
0	H	0.711265	0.421813	0.475623
0	H	0.598831	0.294891	0.138738
0	H	0.297922	0.722771	0.302653
0	H	0.300257	0.598675	0.976236
0	H	0.414385	0.726915	0.639973
0	H	0.725182	0.2216	0.803883
0	H	0.789674	0.501767	0.46575
0	H	0.520276	0.296669	0.140866
0	H	0.289677	0.798121	0.30443
0	H	0.222574	0.518081	0.96802
0	H	0.492406	0.7241	0.638569
0	C	0.735473	0.269152	0.0563651
0	C	0.745476	0.472929	0.724634
0	C	0.552479	0.279717	0.393862
0	C	0.278786	0.751105	0.558041
0	C	0.267468	0.547701	0.226006
0	C	0.4619	0.741547	0.893408
0	C	0.804496	0.389255	0.15364
0	C	0.625926	0.425767	0.821399
0	C	0.593333	0.201226	0.487809
0	C	0.209068	0.631178	0.65596
0	C	0.387283	0.59572	0.321406
0	C	0.421085	0.819984	0.988309
0	H	0.853679	0.430543	0.204785
0	H	0.584968	0.435714	0.866351
0	H	0.580801	0.149282	0.531338
0	H	0.159743	0.590172	0.707159
0	H	0.4285	0.586201	0.36657
0	H	0.433637	0.871857	0.0325773
0	H	0.763608	0.384867	0.240346
0	H	0.62869	0.389481	0.912811
0	H	0.630828	0.238543	0.579466
0	H	0.24985	0.635192	0.74243
0	H	0.384184	0.631907	0.412557
0	H	0.383656	0.782522	0.0798321
0	H	0.797137	0.407363	0.0262184
0	H	0.608902	0.399265	0.694994
0	H	0.619319	0.209492	0.361023
0	H	0.216168	0.6129	0.528479
0	H	0.404182	0.622152	0.194891
0	H	0.395054	0.81192	0.861638
0	C	0.036394	0.48267	0.309965
0	C	0.535698	0.566302	0.975348
0	C	0.44274	0.972991	0.645934
0	C	0.977842	0.539694	0.816369
0	C	0.479363	0.455939	0.469982
0	C	0.570727	0.0481472	0.143833
0	H	0.0203616	0.501735	0.198051
0	H	0.516169	0.532436	0.86153
0	H	0.478693	0.988405	0.536499
0	H	0.994311	0.520286	0.706022
0	H	0.498284	0.489604	0.355642
0	H	0.53492	0.0326276	0.0340827
0	H	0.0910491	0.519999	0.334663
0	H	0.498491	0.583582	0.00560258
0	H	0.422072	0.91712	0.666428
0	H	0.923074	0.502501	0.839993
0	H	0.516817	0.438868	0.49894
0	H	0.591197	0.104009	0.164284
0	H	0.00681458	0.483991	0.422132
0	H	0.535195	0.534116	0.0840047
0	H	0.472887	0.999751	0.761341
0	H	0.0068767	0.538662	0.930059
0	H	0.480321	0.488264	0.578827
0	H	0.540399	0.021275	0.258917
0	C	0.152289	0.25463	0.309542
0	C	0.761256	0.90877	0.976549
0	C	0.104907	0.867609	0.644189
0	C	0.862038	0.767456	0.808481
0	C	0.253135	0.113304	0.476441
0	C	0.90902	0.153806	0.14318
0	C	0.144935	0.188669	0.244365
0	C	0.826945	0.966738	0.911521
0	C	0.0460623	0.874065	0.578229
0	C	0.868587	0.832706	0.74045
0	C	0.186616	0.055335	0.415606
0	C	0.967559	0.146498	0.0784648
0	H	0.163041	0.164759	0.342775
0	H	0.849317	0.00972899	0.00716623
0	H	0.0047831	0.85686	0.677671
0	H	0.84962	0.856561	0.836812
0	H	0.16435	0.0134463	0.514191
0	H	0.00939817	0.165198	0.176728
0	H	0.178728	0.197733	0.129522
0	H	0.818344	0.989918	0.792482
0	H	0.0210708	0.838596	0.466132
0	H	0.834988	0.822631	0.62468
0	H	0.193945	0.0304573	0.298092
0	H	0.991847	0.180203	0.963193
0	H	0.0920411	0.150934	0.205377
0	H	0.865618	0.951597	0.878908
0	H	0.0602399	0.926508	0.534898
0	H	0.921379	0.870843	0.701662
0	H	0.148337	0.0709614	0.382516
0	H	0.953201	0.0934441	0.0404259
0	C	0.129727	0.320918	0.864803
0	C	0.694636	0.820999	0.531639
0	C	0.191166	0.8896	0.200341
0	C	0.884714	0.700521	0.366089
0	C	0.319546	0.200828	0.0290918
0	C	0.822048	0.131326	0.698396
0	C	0.197153	0.342443	0.781043
0	C	0.672493	0.867393	0.45104
0	C	0.143454	0.82175	0.120759
0	C	0.817115	0.679673	0.284244
0	C	0.342382	0.155329	0.946408
0	C	0.869473	0.198872	0.61703
0	H	0.237194	0.395743	0.817702
0	H	0.618854	0.853351	0.486148
0	H	0.155331	0.780546	0.158639
0	H	0.777233	0.626	0.318424
0	H	0.395762	0.16903	0.983371
0	H	0.857173	0.239995	0.65253
0	H	0.192884	0.339696	0.637267
0	H	0.676566	0.867842	0.307285
0	H	0.144073	0.824881	0.976774
0	H	0.821149	0.683909	0.140559
0	H	0.33942	0.15639	0.802594
0	H	0.869101	0.195081	0.473212
0	H	0.216956	0.307404	0.817618
0	H	0.706129	0.921575	0.492599
0	H	0.0895812	0.804045	0.159892
0	H	0.797268	0.714191	0.325469
0	H	0.30844	0.100705	0.983994
0	H	0.923382	0.217238	0.656917
