#******************************************
#
# CIF file created by Zeo++
# Zeo++ is an open source package to
# analyze microporous materials
#
#*******************************************

_cell_length_a		6.31067(0)
_cell_length_b		11.344(0)
_cell_length_c		14.1455(0)
_cell_angle_alpha		88.6392(0)
_cell_angle_beta		101.349(0)
_cell_angle_gamma		85.8389(0)

_symmetry_space_group_name_H-M		'P1'
_symmetry_Int_Tables_number		1
_symmetry_cell_setting		Triclinic

loop_
_symmetry_equiv_pos_as_xyz
'+x,+y,+z'

loop_
_atom_site_label
_atom_site_type_symbol
_atom_site_fract_x
_atom_site_fract_y
_atom_site_fract_z
0	S	0.204051	0.722823	0.805892
0	S	0.731568	0.309925	0.171942
0	O	0.669898	0.571251	0.90259
0	O	0.266309	0.461929	0.0751261
0	O	0.0817757	0.476149	0.763999
0	O	0.854144	0.557472	0.214182
0	N	0.409297	0.444414	0.872281
0	N	0.526914	0.588734	0.10559
0	H	0.487141	0.401102	0.936236
0	H	0.449184	0.631974	0.0415808
0	C	0.510098	0.825284	0.742404
0	C	0.425133	0.207872	0.235357
0	C	0.504915	0.548025	0.848253
0	C	0.431252	0.485105	0.129542
0	C	0.340412	0.850643	0.787181
0	C	0.59472	0.182244	0.190608
0	N	0.132768	0.305887	0.859962
0	N	0.803101	0.727494	0.117971
0	C	0.395627	0.621959	0.759521
0	C	0.540353	0.411068	0.218236
0	H	0.302423	0.568479	0.701903
0	H	0.633706	0.464514	0.275859
0	C	0.197287	0.412139	0.827827
0	C	0.738715	0.621229	0.150165
0	C	0.554478	0.697057	0.719036
0	C	0.381312	0.336158	0.258751
0	H	0.725098	0.66643	0.756974
0	H	0.210733	0.366866	0.22082
0	N	0.280296	0.955398	0.825488
0	N	0.654601	0.0775399	0.15215
0	C	0.535031	0.685486	0.611411
0	C	0.400858	0.347708	0.366371
0	C	0.646015	0.908806	0.716528
0	C	0.287647	0.124994	0.260811
0	O	0.978425	0.0917431	0.914733
0	O	0.957633	0.941486	0.0629056
0	C	0.273664	0.224802	0.934281
0	C	0.662398	0.80839	0.0434428
0	H	0.366533	0.27845	0.991588
0	H	0.569881	0.7546	0.98615
0	H	0.391662	0.171077	0.900618
0	H	0.544098	0.862112	0.0769416
0	N	0.757712	0.97747	0.695257
0	N	0.174705	0.0567923	0.281753
0	F	0.505978	0.683723	0.319889
0	F	0.430381	0.349867	0.657882
0	C	0.513961	0.680985	0.415134
0	C	0.422231	0.352454	0.562622
0	C	0.937392	0.259742	0.799644
0	C	0.998669	0.773656	0.178152
0	H	0.984449	0.209577	0.739146
0	H	0.951741	0.824007	0.238588
0	H	0.823885	0.336785	0.766746
0	H	0.112091	0.696616	0.21112
0	C	0.140069	0.144089	0.984279
0	C	0.795952	0.889134	0.99343
0	H	0.23896	0.0658726	0.0217406
0	H	0.697007	0.96734	0.955986
0	H	0.0595086	0.192654	0.0362043
0	H	0.876418	0.840598	0.941462
0	C	0.715442	0.640222	0.575653
0	C	0.220411	0.392947	0.402137
0	H	0.864052	0.606811	0.625777
0	H	0.071745	0.426214	0.351986
0	C	0.341515	0.72474	0.547552
0	C	0.594418	0.308457	0.430186
0	H	0.20089	0.75884	0.575678
0	H	0.734854	0.27423	0.401982
0	C	0.707203	0.638035	0.476245
0	C	0.228823	0.395263	0.50154
0	H	0.847402	0.604878	0.447742
0	H	0.0886763	0.428412	0.530064
0	C	0.824804	0.180893	0.860448
0	C	0.111254	0.85231	0.117196
0	H	0.745489	0.231734	0.9113
0	H	0.190271	0.801341	0.0663176
0	H	0.707641	0.128105	0.814487
0	H	0.228646	0.905088	0.163055
0	C	0.328475	0.722421	0.447998
0	C	0.60763	0.310917	0.529751
0	H	0.179201	0.753415	0.398268
0	H	0.757003	0.279952	0.579463
0	H	0.13211	0.967037	0.845435
0	H	0.802954	0.0659751	0.132316
0	H	0.316124	0.0310955	0.794205
0	H	0.618921	0.00178468	0.183396
