#******************************************
#
# CIF file created by Zeo++
# Zeo++ is an open source package to
# analyze microporous materials
#
#*******************************************

_cell_length_a		13.8871(0)
_cell_length_b		13.9064(0)
_cell_length_c		25.847(0)
_cell_angle_alpha		90(0)
_cell_angle_beta		90(0)
_cell_angle_gamma		120.093(0)

_symmetry_space_group_name_H-M		'P1'
_symmetry_Int_Tables_number		1
_symmetry_cell_setting		Monoclinic

loop_
_symmetry_equiv_pos_as_xyz
'+x,+y,+z'

loop_
_atom_site_label
_atom_site_type_symbol
_atom_site_fract_x
_atom_site_fract_y
_atom_site_fract_z
0	S	0.128226	0.140741	0.335251
0	S	0.857635	0.984308	0.335475
0	S	0.0144546	0.870838	0.335373
0	S	0.857448	0.870154	0.835624
0	S	0.0134577	0.140783	0.835513
0	S	0.127145	0.984595	0.835586
0	S	0.795335	0.473848	0.668826
0	S	0.524426	0.317631	0.668672
0	S	0.680823	0.203718	0.668797
0	S	0.524619	0.204126	0.168501
0	S	0.681201	0.474776	0.168375
0	S	0.794527	0.318173	0.168585
0	S	0.462072	0.807187	0.00156676
0	S	0.191696	0.651258	0.00153385
0	S	0.347351	0.536183	0.00165866
0	S	0.191006	0.537505	0.501555
0	S	0.347871	0.808325	0.501507
0	S	0.462493	0.652655	0.501775
0	O	0.253628	0.118917	0.26422
0	O	0.879697	0.131513	0.264535
0	O	0.869126	0.745991	0.263643
0	O	0.879214	0.745851	0.764025
0	O	0.865491	0.118209	0.764773
0	O	0.252733	0.132061	0.764733
0	O	0.92058	0.45259	0.597566
0	O	0.546742	0.465307	0.597892
0	O	0.535102	0.0784822	0.5972
0	O	0.545877	0.0799336	0.0966604
0	O	0.533815	0.452773	0.0974032
0	O	0.919826	0.464484	0.0972392
0	O	0.588662	0.78467	0.931539
0	O	0.214632	0.799642	0.930978
0	O	0.200814	0.41061	0.930426
0	O	0.211709	0.411302	0.430721
0	O	0.199597	0.786253	0.430982
0	O	0.588611	0.799498	0.430745
0	C	0.256587	0.177673	0.298671
0	C	0.820563	0.0753617	0.298859
0	C	0.924428	0.742956	0.298337
0	C	0.820549	0.742407	0.798653
0	C	0.921777	0.177314	0.79908
0	C	0.255447	0.0757418	0.799002
0	C	0.923651	0.511161	0.632124
0	C	0.487674	0.409205	0.632254
0	C	0.590516	0.0755782	0.631877
0	C	0.487498	0.0763958	0.131452
0	C	0.589729	0.511529	0.131882
0	C	0.922755	0.408952	0.131832
0	C	0.591096	0.844067	0.965565
0	C	0.155329	0.743313	0.965221
0	C	0.256392	0.407676	0.96502
0	C	0.152914	0.408626	0.465128
0	C	0.255955	0.845168	0.465325
0	C	0.591385	0.743755	0.465264
0	C	0.350947	0.279475	0.318617
0	C	0.718497	0.0674351	0.318659
0	C	0.931703	0.648611	0.318304
0	C	0.718875	0.648024	0.818656
0	C	0.929606	0.279189	0.818897
0	C	0.349493	0.0676972	0.818815
0	C	0.0180778	0.612878	0.652101
0	C	0.385784	0.401577	0.652161
0	C	0.598013	0.981486	0.651877
0	C	0.386021	0.981892	0.151565
0	C	0.597238	0.613155	0.151869
0	C	0.017059	0.401626	0.151831
0	C	0.685246	0.946335	0.985321
0	C	0.0533692	0.73561	0.985077
0	C	0.263507	0.313339	0.985046
0	C	0.0509426	0.314469	0.485084
0	C	0.263449	0.94682	0.485311
0	C	0.685654	0.736281	0.485267
0	C	0.45118	0.323297	0.290078
0	C	0.675425	0.124428	0.290206
0	C	0.87466	0.548436	0.289849
0	C	0.675257	0.547856	0.790191
0	C	0.873161	0.322718	0.790325
0	C	0.449909	0.124833	0.790469
0	C	0.11838	0.656569	0.623619
0	C	0.342342	0.458172	0.623659
0	C	0.541576	0.881366	0.623336
0	C	0.342632	0.881657	0.123177
0	C	0.540965	0.656848	0.123282
0	C	0.117278	0.458391	0.123298
0	C	0.785332	0.990438	0.956632
0	C	0.0101419	0.792671	0.956749
0	C	0.206595	0.213117	0.956581
0	C	0.00709465	0.214242	0.456611
0	C	0.206811	0.990302	0.45683
0	C	0.786111	0.793031	0.456863
0	C	0.546101	0.418777	0.306483
0	C	0.579977	0.123863	0.306515
0	C	0.874531	0.453441	0.306338
0	C	0.579794	0.453009	0.80664
0	C	0.873929	0.418135	0.806664
0	C	0.544687	0.124206	0.806891
0	C	0.213389	0.751832	0.640136
0	C	0.24702	0.457752	0.640077
0	C	0.541967	0.786605	0.639806
0	C	0.247477	0.786622	0.139761
0	C	0.541441	0.752055	0.139737
0	C	0.212314	0.458326	0.139761
0	C	0.880189	0.0860889	0.972938
0	C	0.914607	0.791909	0.973118
0	C	0.206644	0.118171	0.973036
0	C	0.911573	0.11937	0.473031
0	C	0.20709	0.0853929	0.473307
0	C	0.880953	0.792548	0.47333
0	C	0.543699	0.473269	0.352025
0	C	0.524602	0.0662514	0.351819
0	C	0.931531	0.455689	0.351847
0	C	0.525064	0.455417	0.852126
0	C	0.930967	0.472784	0.8522
0	C	0.541954	0.0664551	0.852195
0	C	0.211049	0.80616	0.685751
0	C	0.19213	0.400682	0.685566
0	C	0.598822	0.789	0.685393
0	C	0.192868	0.788885	0.185306
0	C	0.598128	0.806425	0.185385
0	C	0.210069	0.401466	0.185299
0	C	0.877814	0.140656	0.0184589
0	C	0.859232	0.733966	0.018374
0	C	0.263708	0.120473	0.0185299
0	C	0.856769	0.121719	0.518498
0	C	0.263969	0.13994	0.51889
0	C	0.878381	0.735279	0.518773
0	C	0.444014	0.430241	0.380189
0	C	0.566854	0.00902002	0.379919
0	C	0.98892	0.555316	0.379915
0	C	0.568001	0.554944	0.880284
0	C	0.987855	0.430178	0.880345
0	C	0.442071	0.00903833	0.880147
0	C	0.111241	0.7634	0.713796
0	C	0.234776	0.343877	0.713727
0	C	0.655472	0.888526	0.713588
0	C	0.235498	0.888552	0.213355
0	C	0.654687	0.76355	0.213596
0	C	0.11044	0.344529	0.213488
0	C	0.778404	0.0971705	0.0468688
0	C	0.901795	0.676935	0.0464015
0	C	0.320628	0.220005	0.0467065
0	C	0.899985	0.22119	0.546728
0	C	0.320736	0.0972155	0.547045
0	C	0.778597	0.678416	0.546854
0	C	0.348317	0.334674	0.363717
0	C	0.662443	0.00893487	0.363537
0	C	0.989653	0.651087	0.363369
0	C	0.663583	0.650572	0.863765
0	C	0.98778	0.334675	0.863931
0	C	0.346489	0.00900063	0.863663
0	C	0.0154404	0.668096	0.697196
0	C	0.330214	0.343617	0.69722
0	C	0.655725	0.984052	0.697052
0	C	0.330731	0.984356	0.196685
0	C	0.65489	0.668248	0.197072
0	C	0.0145761	0.343885	0.196943
0	C	0.682743	0.00148793	0.0304555
0	C	0.997435	0.677045	0.0299616
0	C	0.321216	0.315718	0.0301709
0	C	0.995631	0.316835	0.530223
0	C	0.321212	0.00208163	0.53047
0	C	0.68296	0.678237	0.53031
0	C	0.644933	0.575736	0.37006
0	C	0.422135	0.0651299	0.369643
0	C	0.9321	0.354343	0.369895
0	C	0.422373	0.354308	0.870055
0	C	0.931831	0.574799	0.870327
0	C	0.643268	0.0654272	0.870136
0	C	0.312498	0.908079	0.704049
0	C	0.0897653	0.399657	0.703492
0	C	0.600019	0.68796	0.703415
0	C	0.0906735	0.687596	0.203501
0	C	0.599122	0.908514	0.20349
0	C	0.311564	0.400731	0.203205
0	C	0.978745	0.243854	0.0361139
0	C	0.756457	0.73222	0.0361827
0	C	0.264929	0.0193414	0.0363948
0	C	0.753753	0.0207182	0.536253
0	C	0.26505	0.242109	0.536937
0	C	0.979638	0.73412	0.536709
0	H	0.453161	0.281124	0.254666
0	H	0.718164	0.169083	0.254941
0	H	0.830478	0.546519	0.254435
0	H	0.717515	0.545875	0.75479
0	H	0.828759	0.280329	0.754961
0	H	0.452143	0.169578	0.755225
0	H	0.120368	0.614458	0.588181
0	H	0.384694	0.502434	0.588251
0	H	0.497515	0.879322	0.587854
0	H	0.38479	0.879733	0.0877194
0	H	0.496941	0.614776	0.0877915
0	H	0.119142	0.502397	0.0878486
0	H	0.787267	0.948347	0.921179
0	H	0.0527346	0.83741	0.9215
0	H	0.162501	0.211165	0.921131
0	H	0.0492755	0.21222	0.421186
0	H	0.162623	0.948132	0.421386
0	H	0.788341	0.837417	0.42149
0	H	0.622708	0.45154	0.284052
0	H	0.547896	0.16829	0.284184
0	H	0.830057	0.376847	0.284015
0	H	0.547157	0.376413	0.784297
0	H	0.830068	0.450687	0.784207
0	H	0.621517	0.168754	0.784666
0	H	0.290039	0.784526	0.617743
0	H	0.214661	0.501855	0.617694
0	H	0.498001	0.710066	0.617402
0	H	0.215031	0.709995	0.11746
0	H	0.497652	0.78468	0.117276
0	H	0.288936	0.502519	0.117359
0	H	0.956741	0.118977	0.950447
0	H	0.882424	0.836355	0.950886
0	H	0.162302	0.0415919	0.950685
0	H	0.878922	0.042793	0.450668
0	H	0.162973	0.117788	0.450929
0	H	0.957705	0.836764	0.45101
0	H	0.440535	0.472207	0.41528
0	H	0.524388	0.963223	0.414893
0	H	0.0343813	0.558696	0.415011
0	H	0.52602	0.558407	0.915395
0	H	0.0335272	0.472333	0.915394
0	H	0.438289	0.963022	0.915098
0	H	0.107763	0.805332	0.748902
0	H	0.192696	0.298501	0.74885
0	H	0.700779	0.892041	0.748763
0	H	0.193517	0.891918	0.248484
0	H	0.69998	0.805409	0.24877
0	H	0.107108	0.299316	0.248649
0	H	0.775041	0.138946	0.0820583
0	H	0.859403	0.63098	0.0813638
0	H	0.365936	0.223373	0.0818506
0	H	0.858142	0.224627	0.581893
0	H	0.366037	0.139118	0.582215
0	H	0.77497	0.632899	0.58195
0	H	0.272515	0.305276	0.386898
0	H	0.691238	0.962025	0.386618
0	H	0.0366427	0.726887	0.386451
0	H	0.692836	0.726279	0.886935
0	H	0.0342182	0.30546	0.887115
0	H	0.270447	0.961955	0.886624
0	H	0.939526	0.638883	0.720269
0	H	0.359268	0.296975	0.720334
0	H	0.702167	0.0597815	0.720223
0	H	0.359667	0.0601643	0.219739
0	H	0.701187	0.638928	0.220286
0	H	0.938711	0.297085	0.220055
0	H	0.606975	0.971895	0.0536727
0	H	0.0263402	0.630127	0.0529621
0	H	0.368026	0.391489	0.0532954
0	H	0.025087	0.392564	0.553385
0	H	0.367804	0.97295	0.553586
0	H	0.607002	0.631523	0.553365
0	H	0.662834	0.570003	0.411163
0	H	0.429248	0.092263	0.410246
0	H	0.907655	0.336153	0.410906
0	H	0.427851	0.336423	0.911162
0	H	0.908289	0.56879	0.911455
0	H	0.66335	0.0927796	0.910721
0	H	0.329972	0.901742	0.745156
0	H	0.0970971	0.426996	0.744076
0	H	0.57626	0.670007	0.744486
0	H	0.0968357	0.670027	0.24458
0	H	0.575647	0.902646	0.244625
0	H	0.331648	0.427999	0.243799
0	H	0.999081	0.237667	0.0767674
0	H	0.763492	0.759587	0.0767494
0	H	0.238472	0.999634	0.0771091
0	H	0.759213	0.00212103	0.577295
0	H	0.240911	0.236076	0.577982
0	H	0.000109966	0.762017	0.577206
0	H	0.72022	0.593875	0.348334
0	H	0.40258	0.11977	0.346768
0	H	0.875019	0.279351	0.347971
0	H	0.40439	0.279155	0.848353
0	H	0.874175	0.59231	0.848721
0	H	0.717705	0.119972	0.847238
0	H	0.387822	0.925974	0.682419
0	H	0.0700558	0.454178	0.680606
0	H	0.542797	0.612775	0.681657
0	H	0.0726918	0.612395	0.181847
0	H	0.54153	0.926117	0.181882
0	H	0.385947	0.455458	0.18031
0	H	0.0532669	0.264049	0.0132674
0	H	0.736244	0.786247	0.0131992
0	H	0.209802	0.944823	0.0137405
0	H	0.735214	0.945738	0.51427
0	H	0.20806	0.260153	0.515074
0	H	0.0539762	0.788121	0.513645
0	H	0.634561	0.649033	0.366325
0	H	0.348985	0.980785	0.367434
0	H	0.0158698	0.36455	0.366479
0	H	0.348979	0.364646	0.866163
0	H	0.0154455	0.648565	0.86655
0	H	0.631713	0.981083	0.868057
0	H	0.302745	0.98176	0.700476
0	H	0.0166477	0.315314	0.7014
0	H	0.683882	0.69845	0.699705
0	H	0.0169943	0.697535	0.199869
0	H	0.682823	0.982172	0.199669
0	H	0.300209	0.316452	0.201055
0	H	0.966326	0.3161	0.0336178
0	H	0.68374	0.647603	0.0340978
0	H	0.349362	0.0308712	0.0338828
0	H	0.680699	0.0316916	0.532609
0	H	0.348957	0.315585	0.533401
0	H	0.967745	0.649619	0.534882
0	P	0.999831	0.998468	0.297728
0	P	0.99922	0.998697	0.797869
0	P	0.666737	0.331754	0.631165
0	P	0.666689	0.332459	0.13084
0	P	0.333852	0.664604	0.964039
0	P	0.333766	0.665902	0.464126
