#******************************************
#
# CIF file created by Zeo++
# Zeo++ is an open source package to
# analyze microporous materials
#
#*******************************************

_cell_length_a		7.78533(0)
_cell_length_b		11.1217(0)
_cell_length_c		20.7848(0)
_cell_angle_alpha		90(0)
_cell_angle_beta		90(0)
_cell_angle_gamma		90(0)

_symmetry_space_group_name_H-M		'P1'
_symmetry_Int_Tables_number		1
_symmetry_cell_setting		Monoclinic

loop_
_symmetry_equiv_pos_as_xyz
'+x,+y,+z'

loop_
_atom_site_label
_atom_site_type_symbol
_atom_site_fract_x
_atom_site_fract_y
_atom_site_fract_z
0	C	0.707436	0.133676	0.812627
0	C	0.828777	0.967329	0.3063
0	C	0.315247	0.632598	0.725123
0	C	0.221437	0.467427	0.216894
0	C	0.612126	0.11562	0.748882
0	C	0.923564	0.986388	0.242556
0	C	0.410593	0.61546	0.788981
0	C	0.125335	0.484121	0.28063
0	H	0.517541	0.0403597	0.754177
0	H	0.0189038	0.0612158	0.248099
0	H	0.507564	0.541691	0.783622
0	H	0.0288548	0.558104	0.27533
0	H	0.533157	0.195934	0.738035
0	H	0.00182247	0.905955	0.231206
0	H	0.487094	0.696898	0.799918
0	H	0.0485021	0.402724	0.291325
0	C	0.732739	0.0885597	0.693046
0	C	0.802407	0.0148492	0.187051
0	C	0.290774	0.586501	0.844866
0	C	0.244912	0.512309	0.336678
0	H	0.806506	0.170516	0.680192
0	H	0.727896	0.933483	0.173922
0	H	0.215962	0.667627	0.858203
0	H	0.319536	0.431073	0.34965
0	H	0.654191	0.0657159	0.649832
0	H	0.880435	0.0383499	0.143865
0	H	0.369811	0.563107	0.887755
0	H	0.165893	0.535024	0.379642
0	C	0.860063	0.985502	0.707025
0	C	0.676441	0.118275	0.201769
0	C	0.164973	0.482689	0.830626
0	C	0.370972	0.616286	0.322949
0	C	0.949223	0.00556861	0.773258
0	C	0.586781	0.0964308	0.267653
0	C	0.0746338	0.503712	0.764771
0	C	0.461282	0.596585	0.256895
0	C	0.0811739	0.906462	0.787582
0	C	0.454776	0.194949	0.282879
0	C	0.941417	0.405391	0.750621
0	C	0.593893	0.695553	0.243113
0	H	0.0159467	0.819279	0.79621
0	H	0.520009	0.281858	0.292465
0	H	0.00566	0.317535	0.742568
0	H	0.529175	0.783358	0.235603
0	H	0.164376	0.891563	0.74481
0	H	0.371665	0.211362	0.240269
0	H	0.857237	0.391923	0.79323
0	H	0.678168	0.708448	0.285754
0	C	0.194384	0.939273	0.845138
0	C	0.341261	0.159679	0.339956
0	C	0.829493	0.437814	0.692654
0	C	0.705843	0.664868	0.184854
0	C	0.0853401	0.967346	0.905213
0	C	0.44935	0.129446	0.399998
0	C	0.940079	0.46279	0.63258
0	C	0.594643	0.640244	0.124911
0	C	0.935333	0.0565974	0.891154
0	C	0.600328	0.0414131	0.385177
0	C	0.0891027	0.552992	0.646383
0	C	0.447463	0.548565	0.138552
0	C	0.822763	0.0234999	0.831141
0	C	0.712972	0.0768255	0.32555
0	C	0.201237	0.521539	0.706783
0	C	0.334659	0.579026	0.198928
0	C	0.830953	0.0795249	0.953317
0	C	0.704992	0.0165176	0.447113
0	C	0.193902	0.574703	0.584185
0	C	0.343456	0.526358	0.0762569
0	H	0.900017	0.148388	0.981969
0	H	0.636735	0.945966	0.474869
0	H	0.123797	0.641704	0.554638
0	H	0.415399	0.460883	0.0463525
0	H	0.705527	0.121501	0.94144
0	H	0.830973	0.975829	0.434767
0	H	0.317999	0.618668	0.59595
0	H	0.22053	0.480565	0.0877678
0	C	0.800471	0.968818	0.996109
0	C	0.734133	0.125507	0.49128
0	C	0.227482	0.462603	0.542708
0	C	0.306907	0.638889	0.0355473
0	H	0.755502	0.998215	0.0440725
0	H	0.780004	0.094456	0.538834
0	H	0.271927	0.490315	0.494497
0	H	0.262935	0.611528	0.987166
0	H	0.696394	0.912618	0.975438
0	H	0.836912	0.183522	0.471288
0	H	0.332565	0.408507	0.564208
0	H	0.200254	0.690997	0.0574905
0	C	0.96419	0.891855	0.00275337
0	C	0.568475	0.200094	0.498964
0	C	0.0653595	0.38371	0.536585
0	C	0.466233	0.720548	0.0298477
0	C	0.0170421	0.848501	0.935044
0	C	0.515645	0.246947	0.431886
0	C	0.0102134	0.34298	0.604523
0	C	0.521703	0.760151	0.0979106
0	H	0.909181	0.808953	0.907886
0	H	0.622993	0.288721	0.40556
0	H	0.116933	0.30473	0.632722
0	H	0.414762	0.796961	0.12652
0	H	0.117446	0.77887	0.937644
0	H	0.413861	0.315409	0.435574
0	H	0.909882	0.273191	0.602132
0	H	0.620613	0.830987	0.0958372
0	C	0.197978	0.0186551	0.961086
0	C	0.33599	0.0750944	0.454834
0	C	0.828659	0.510632	0.575464
0	C	0.70585	0.594583	0.0672199
0	H	0.332445	0.988082	0.957174
0	H	0.202353	0.107746	0.451885
0	H	0.694748	0.478769	0.579091
0	H	0.840101	0.62553	0.0713061
0	H	0.203418	0.117798	0.960442
0	H	0.328064	0.976227	0.451903
0	H	0.821175	0.609676	0.574934
0	H	0.712473	0.495551	0.0653336
0	C	0.114927	0.971513	0.0218567
0	C	0.420883	0.116309	0.51649
0	C	0.914668	0.461801	0.515645
0	C	0.62015	0.646434	0.00809725
0	C	0.164937	0.994485	0.0817051
0	C	0.376897	0.0834635	0.575694
0	C	0.8684	0.482899	0.455154
0	C	0.670359	0.632581	0.947472
0	H	0.27148	0.0524933	0.0935094
0	H	0.274385	0.0211978	0.585899
0	H	0.7622	0.540093	0.441939
0	H	0.780282	0.579447	0.933208
0	H	0.101622	0.958921	0.123776
0	H	0.442924	0.113573	0.618512
0	H	0.934535	0.446098	0.414019
0	H	0.604444	0.672029	0.907018
0	C	0.993437	0.983328	0.65232
0	C	0.544715	0.124413	0.146519
0	C	0.0343243	0.475396	0.88615
0	C	0.502447	0.621081	0.378294
0	H	0.0672745	0.0672898	0.650564
0	H	0.464699	0.0430832	0.144259
0	H	0.95363	0.55656	0.889213
0	H	0.580137	0.538747	0.380658
0	H	0.933154	0.970997	0.605092
0	H	0.60729	0.134706	0.0995299
0	H	0.0976355	0.464198	0.932916
0	H	0.439938	0.632335	0.425212
0	H	0.0864828	0.90961	0.658717
0	H	0.456252	0.200953	0.152455
0	H	0.945962	0.398835	0.880038
0	H	0.592766	0.696547	0.372352
0	C	0.775642	0.86072	0.705013
0	C	0.763056	0.242335	0.200622
0	C	0.252333	0.358949	0.831446
0	C	0.284088	0.740214	0.324498
0	C	0.706853	0.914636	0.842849
0	C	0.828159	0.185583	0.338462
0	C	0.31902	0.413398	0.69561
0	C	0.215647	0.686683	0.188271
0	H	0.781488	0.830754	0.845195
0	H	0.753019	0.269135	0.341545
0	H	0.246493	0.328676	0.695003
0	H	0.287175	0.771959	0.18819
0	H	0.608324	0.904747	0.805341
0	H	0.926872	0.196969	0.301166
0	H	0.420053	0.406369	0.732369
0	H	0.114438	0.692433	0.225058
0	H	0.638436	0.922917	0.888973
0	H	0.896213	0.175872	0.384543
0	H	0.384815	0.420257	0.648874
0	H	0.150062	0.680416	0.141476
0	O	0.578398	0.155861	0.86178
0	O	0.958119	0.944002	0.355173
0	O	0.444349	0.655879	0.676196
0	O	0.0928454	0.44407	0.167706
0	O	0.30436	0.0373727	0.826682
0	O	0.232326	0.0618942	0.320344
0	O	0.721986	0.537942	0.70993
0	O	0.815462	0.565455	0.201389
0	O	0.606261	0.860995	0.694586
0	O	0.931622	0.240746	0.188721
0	O	0.420395	0.36024	0.843887
0	O	0.115738	0.739096	0.336581
0	O	0.854568	0.765494	0.710878
0	O	0.685923	0.337993	0.207779
0	O	0.175152	0.263455	0.82345
0	O	0.361467	0.835789	0.317129
0	H	0.783046	0.21878	0.813522
0	H	0.75318	0.882198	0.306761
0	H	0.238182	0.717028	0.724116
0	H	0.298853	0.383149	0.215871
0	H	0.485628	0.0904499	0.860444
0	H	0.0515375	0.0093473	0.353983
0	H	0.536495	0.590298	0.676959
0	H	0.000768841	0.509624	0.168286
0	H	0.548058	0.773596	0.689689
0	H	0.990449	0.328041	0.182977
0	H	0.479138	0.272277	0.848492
0	H	0.0572291	0.827026	0.341498
0	H	0.238681	0.115199	0.821878
0	H	0.298264	0.984257	0.31546
0	H	0.789131	0.615351	0.713086
0	H	0.749058	0.488199	0.206671
0	H	0.0228312	0.0924544	0.768243
0	H	0.513318	0.00967931	0.261832
0	H	0.00178289	0.590772	0.77011
0	H	0.5348	0.509637	0.261836
0	H	0.290284	0.867061	0.855171
0	H	0.244633	0.231089	0.35058
0	H	0.731898	0.366499	0.683149
0	H	0.802136	0.737124	0.175469
0	H	0.998092	0.144963	0.87863
0	H	0.538285	0.953222	0.37178
0	H	0.0256646	0.641454	0.658184
0	H	0.512464	0.460694	0.150377
0	H	0.943021	0.816401	0.0365901
0	H	0.586749	0.273644	0.534188
0	H	0.0887517	0.306833	0.503863
0	H	0.439348	0.797962	0.99789
