#******************************************
#
# CIF file created by Zeo++
# Zeo++ is an open source package to
# analyze microporous materials
#
#*******************************************

_cell_length_a		18.3995(0)
_cell_length_b		18.3162(0)
_cell_length_c		18.4785(0)
_cell_angle_alpha		116.482(0)
_cell_angle_beta		116.031(0)
_cell_angle_gamma		116.656(0)

_symmetry_space_group_name_H-M		'P1'
_symmetry_Int_Tables_number		1
_symmetry_cell_setting		Triclinic

loop_
_symmetry_equiv_pos_as_xyz
'+x,+y,+z'

loop_
_atom_site_label
_atom_site_type_symbol
_atom_site_fract_x
_atom_site_fract_y
_atom_site_fract_z
0	C	0.600862	0.186754	0.61373
0	C	0.627804	0.627713	0.200418
0	C	0.172486	0.604899	0.596991
0	C	0.378382	0.801879	0.370938
0	C	0.350946	0.360288	0.783624
0	C	0.806195	0.383456	0.38715
0	H	0.616809	0.138832	0.624105
0	H	0.647289	0.65098	0.160555
0	H	0.126693	0.617288	0.615127
0	H	0.362703	0.850092	0.360957
0	H	0.331526	0.336901	0.823439
0	H	0.852191	0.371337	0.369136
0	H	0.546554	0.131093	0.513724
0	H	0.529123	0.578064	0.14532
0	H	0.11524	0.502333	0.541471
0	H	0.432759	0.857358	0.47094
0	H	0.449667	0.410046	0.838709
0	H	0.863137	0.485863	0.442527
0	C	0.508547	0.164204	0.614104
0	C	0.615406	0.524851	0.16734
0	C	0.150237	0.60523	0.505345
0	C	0.470448	0.82422	0.37024
0	C	0.36321	0.463102	0.816821
0	C	0.828457	0.38302	0.478724
0	H	0.404992	0.0818146	0.509777
0	H	0.507664	0.422455	0.0835804
0	H	0.0667319	0.499274	0.401449
0	H	0.574106	0.906663	0.474499
0	H	0.470961	0.565574	0.900679
0	H	0.91201	0.488983	0.582671
0	H	0.499856	0.125583	0.64642
0	H	0.647564	0.515015	0.128743
0	H	0.114791	0.640811	0.499683
0	H	0.4789	0.862648	0.337716
0	H	0.330935	0.472702	0.85533
0	H	0.863866	0.347403	0.484298
0	C	0.560722	0.291503	0.70416
0	C	0.698294	0.567517	0.286991
0	C	0.275836	0.693921	0.555201
0	C	0.418174	0.696866	0.280166
0	C	0.280397	0.420619	0.697292
0	C	0.702899	0.294337	0.428914
0	C	0.629438	0.37092	0.833589
0	C	0.826533	0.632469	0.364645
0	C	0.356784	0.825661	0.624406
0	C	0.349432	0.617392	0.150716
0	C	0.152236	0.355811	0.619675
0	C	0.62199	0.162591	0.359711
0	O	0.60155	0.301694	0.850279
0	O	0.845353	0.606961	0.297812
0	O	0.290353	0.844897	0.598834
0	O	0.377391	0.686606	0.134013
0	O	0.133307	0.381243	0.686399
0	O	0.688503	0.143446	0.385388
0	H	0.650647	0.363685	0.945065
0	H	0.939161	0.653713	0.35818
0	H	0.353581	0.941725	0.649361
0	H	0.328238	0.624539	0.039179
0	H	0.0395757	0.334636	0.626058
0	H	0.625256	0.0465484	0.334778
0	C	0.720213	0.510655	0.936582
0	C	0.926054	0.717315	0.500244
0	C	0.495036	0.928123	0.713211
0	C	0.25858	0.477654	0.0477191
0	C	0.0528084	0.271091	0.484098
0	C	0.48377	0.0601154	0.270924
0	C	0.746891	0.570811	0.907537
0	C	0.89471	0.741122	0.558114
0	C	0.55197	0.895937	0.736729
0	C	0.23184	0.41749	0.0767638
0	C	0.0842513	0.247387	0.426319
0	C	0.426767	0.0922512	0.247411
0	C	0.653649	0.48667	0.773081
0	C	0.759114	0.649462	0.473335
0	C	0.466064	0.758755	0.642633
0	C	0.325055	0.501628	0.211207
0	C	0.219865	0.339059	0.511162
0	C	0.512611	0.229397	0.341506
0	H	0.661248	0.531007	0.748158
0	H	0.731361	0.653997	0.514785
0	H	0.507893	0.731336	0.647782
0	H	0.317376	0.457273	0.236093
0	H	0.247691	0.334645	0.469778
0	H	0.470822	0.256852	0.336473
0	C	0.560948	0.347235	0.671723
0	C	0.661237	0.563218	0.338047
0	C	0.328284	0.658135	0.552525
0	C	0.417833	0.641087	0.312576
0	C	0.317594	0.425074	0.646364
0	C	0.650396	0.330069	0.431564
0	H	0.496514	0.284597	0.568997
0	H	0.558335	0.500724	0.275697
0	H	0.264517	0.55351	0.48795
0	H	0.482247	0.703734	0.415324
0	H	0.420524	0.487576	0.708793
0	H	0.714141	0.434689	0.496219
0	C	0.878078	0.719467	0.0132045
0	C	7.31927e-06	0.86833	0.706157
0	C	0.69901	0.00104099	0.865461
0	C	0.100596	0.268884	0.971118
0	C	0.978979	0.120271	0.278248
0	C	0.279717	0.987091	0.118694
0	H	0.929464	0.782273	0.113266
0	H	0.0988445	0.916589	0.767367
0	H	0.763276	0.102838	0.917183
0	H	0.049394	0.205923	0.871108
0	H	0.880182	0.0721761	0.216971
0	H	0.215336	0.885503	0.0674322
0	H	0.858178	0.758964	0.989654
0	H	0.970427	0.842054	0.73938
0	H	0.735724	0.974337	0.843192
0	H	0.12037	0.229472	0.994936
0	H	0.00871343	0.146567	0.245132
0	H	0.243256	0.0143074	0.140892
0	C	0.978143	0.744427	0.0251556
0	C	0.0212656	0.976649	0.741161
0	C	0.724008	0.014289	0.965584
0	C	0.000378136	0.244045	0.958789
0	C	0.957344	0.0116849	0.243012
0	C	0.254511	0.972959	0.0180483
0	H	0.00445849	0.796055	0.00791319
0	H	0.000944734	0.999352	0.78982
0	H	0.77371	0.995371	0.990272
0	H	0.973397	0.191999	0.975513
0	H	0.977304	0.988632	0.194022
0	H	0.203958	0.990864	0.992234
0	H	0.0733772	0.816896	0.130142
0	H	0.129372	0.0728005	0.817283
0	H	0.79723	0.121338	0.0608212
0	H	0.905481	0.171954	0.853827
0	H	0.849231	0.915729	0.167072
0	H	0.181942	0.86593	0.923415
0	C	0.921108	0.614661	0.929011
0	C	0.933318	0.929963	0.619238
0	C	0.595771	0.918895	0.910643
0	C	0.0576172	0.373904	0.0551186
0	C	0.0453338	0.0582457	0.364818
0	C	0.382772	0.0686773	0.0731134
0	C	0.92528	0.558788	0.961095
0	C	0.971964	0.939939	0.569804
0	C	0.542897	0.954066	0.91767
0	C	0.0537355	0.430053	0.0233164
0	C	0.00675306	0.0481857	0.414289
0	C	0.435996	0.0338939	0.066325
0	H	0.995875	0.622577	0.0650314
0	H	0.0769793	0.00938043	0.634892
0	H	0.607888	0.0600517	0.988969
0	H	0.983207	0.366427	0.919485
0	H	0.901795	0.978763	0.349303
0	H	0.371233	0.927998	0.995086
0	C	0.831293	0.41948	0.858788
0	C	0.874067	0.852451	0.434595
0	C	0.405145	0.852197	0.825906
0	C	0.147898	0.569418	0.125824
0	C	0.104702	0.135561	0.549473
0	C	0.573797	0.136047	0.158203
0	H	0.828154	0.374364	0.882679
0	H	0.902628	0.853242	0.394062
0	H	0.36241	0.878443	0.825111
0	H	0.151229	0.614751	0.102159
0	H	0.0761601	0.134654	0.590006
0	H	0.616788	0.110091	0.159159
0	C	0.733383	0.336051	0.724056
0	C	0.737393	0.755869	0.349071
0	C	0.320176	0.714756	0.727181
0	C	0.245697	0.652608	0.260465
0	C	0.24137	0.232203	0.634959
0	C	0.658446	0.273363	0.256836
0	C	0.752865	0.398113	0.696847
0	C	0.705798	0.771329	0.406749
0	C	0.37919	0.684591	0.743699
0	C	0.22593	0.590306	0.287412
0	C	0.272915	0.216827	0.577215
0	C	0.599121	0.303187	0.240181
0	H	0.689111	0.33638	0.594461
0	H	0.602919	0.709117	0.344258
0	H	0.316212	0.580142	0.679166
0	H	0.289619	0.651869	0.389732
0	H	0.375776	0.279062	0.639639
0	H	0.661857	0.407578	0.304678
0	C	0.846541	0.537614	0.799427
0	C	0.803796	0.858076	0.541966
0	C	0.51723	0.78683	0.835374
0	C	0.13209	0.450762	0.184639
0	C	0.174838	0.130136	0.442009
0	C	0.461036	0.200671	0.148385
0	H	0.854653	0.583683	0.776344
0	H	0.776711	0.862445	0.584039
0	H	0.560957	0.761412	0.841297
0	H	0.123739	0.404488	0.207516
0	H	0.201863	0.125807	0.39988
0	H	0.417045	0.225804	0.142346
0	C	0.785326	0.594293	0.0711986
0	C	0.0596561	0.77972	0.582057
0	C	0.580575	0.0654207	0.779568
0	C	0.193384	0.393937	0.913069
0	C	0.919214	0.208677	0.402231
0	C	0.398265	0.92284	0.204615
0	O	0.703523	0.495128	0.0512299
0	O	0.0406706	0.700457	0.483903
0	O	0.484845	0.0490271	0.702684
0	O	0.275231	0.493016	0.93298
0	O	0.938161	0.287982	0.500322
0	O	0.493991	0.939213	0.281454
0	H	0.755148	0.539625	0.140892
0	H	0.131321	0.752254	0.528905
0	H	0.53116	0.141159	0.756596
0	H	0.223611	0.448526	0.843341
0	H	0.84748	0.236122	0.455293
0	H	0.447664	0.847091	0.22758
0	C	0.769195	0.673803	0.10682
0	C	0.0875067	0.754449	0.652667
0	C	0.655846	0.0975322	0.758785
0	C	0.209266	0.314171	0.877261
0	C	0.891249	0.233767	0.331438
0	C	0.323114	0.89083	0.225514
0	H	0.66324	0.605697	0.0218573
0	H	0.999822	0.644162	0.578105
0	H	0.583527	0.0118021	0.650786
0	H	0.315373	0.382371	0.961992
0	H	0.979045	0.34396	0.405794
0	H	0.395469	0.976622	0.333545
0	H	0.830878	0.757689	0.131912
0	H	0.104708	0.807865	0.730648
0	H	0.733311	0.114277	0.811865
0	H	0.148015	0.230761	0.852832
0	H	0.873507	0.179827	0.253106
0	H	0.245612	0.874072	0.17243
0	H	0.797578	0.717463	0.193065
0	H	0.176096	0.786055	0.699488
0	H	0.705372	0.188757	0.79293
0	H	0.180147	0.269858	0.790557
0	H	0.802873	0.202482	0.284953
0	H	0.273597	0.799642	0.191425
0	C	0.928711	0.679109	0.183497
0	C	0.177506	0.927295	0.673027
0	C	0.668198	0.180039	0.924082
0	C	0.0500675	0.30928	0.800836
0	C	0.801423	0.0611408	0.311342
0	C	0.310503	0.80816	0.0600385
0	C	0.948709	0.610947	0.170044
0	C	0.173334	0.954743	0.612471
0	C	0.603621	0.170584	0.947783
0	C	0.0302578	0.377599	0.814354
0	C	0.805747	0.0338661	0.372075
0	C	0.374906	0.81724	0.0361944
0	H	0.863089	0.500083	0.0784743
0	H	0.0853303	0.871703	0.503169
0	H	0.49345	0.0807318	0.863912
0	H	0.115957	0.488474	0.905964
0	H	0.893804	0.117038	0.481387
0	H	0.485083	0.906877	0.119995
0	C	0.0772918	0.683885	0.273156
0	C	0.280847	0.0875131	0.691011
0	C	0.679251	0.275296	0.0778296
0	C	0.901784	0.304837	0.711256
0	C	0.698358	0.901198	0.293706
0	C	0.299086	0.712441	0.906047
0	H	0.0919182	0.63001	0.261593
0	H	0.276771	0.107987	0.643127
0	H	0.628323	0.267063	0.0954854
0	H	0.887274	0.35881	0.722882
0	H	0.702559	0.880861	0.341715
0	H	0.349877	0.720394	0.888261
0	C	0.187323	0.825628	0.391222
0	C	0.393794	0.19439	0.83092
0	C	0.820272	0.390851	0.185764
0	C	0.791646	0.163077	0.593112
0	C	0.585328	0.794182	0.153782
0	C	0.158063	0.597176	0.79819
0	H	0.287412	0.882163	0.473155
0	H	0.478948	0.297919	0.891946
0	H	0.879046	0.473872	0.28719
0	H	0.691692	0.106706	0.511192
0	H	0.500241	0.69068	0.0928695
0	H	0.0991312	0.514104	0.696686
0	C	0.168119	0.893994	0.404613
0	C	0.398067	0.167799	0.891734
0	C	0.88498	0.400271	0.162813
0	C	0.81064	0.0945516	0.57971
0	C	0.580913	0.820548	0.0927705
0	C	0.09353	0.588121	0.821311
0	H	0.25338	0.00463823	0.496416
0	H	0.485907	0.250817	0.000929149
0	H	0.995025	0.490116	0.246544
0	H	0.725293	0.983907	0.487885
0	H	0.49303	0.737413	0.983564
0	H	0.983488	0.498501	0.737651
0	C	0.0394968	0.82126	0.301467
0	C	0.290762	0.0347545	0.813247
0	C	0.809455	0.295738	0.0325583
0	C	0.939166	0.167119	0.682859
0	C	0.688134	0.953546	0.17111
0	C	0.169214	0.692707	0.951624
0	H	0.0274854	0.877464	0.315516
0	H	0.297808	0.0167824	0.863446
0	H	0.862831	0.306898	0.0175839
0	H	0.950975	0.110755	0.668792
0	H	0.680962	0.971326	0.120746
0	H	0.11596	0.68182	0.966715
