#******************************************
#
# CIF file created by Zeo++
# Zeo++ is an open source package to
# analyze microporous materials
#
#*******************************************

_cell_length_a		15.1958(0)
_cell_length_b		10.0047(0)
_cell_length_c		11.5978(0)
_cell_angle_alpha		90(0)
_cell_angle_beta		90.6988(0)
_cell_angle_gamma		90(0)

_symmetry_space_group_name_H-M		'P1'
_symmetry_Int_Tables_number		1
_symmetry_cell_setting		Monoclinic

loop_
_symmetry_equiv_pos_as_xyz
'+x,+y,+z'

loop_
_atom_site_label
_atom_site_type_symbol
_atom_site_fract_x
_atom_site_fract_y
_atom_site_fract_z
0	N	0.435334	0.673745	0.101886
0	N	0.591113	0.673494	0.394814
0	N	0.591133	0.327029	0.894301
0	N	0.435383	0.327292	0.601267
0	N	0.283528	0.679423	0.129475
0	N	0.742921	0.679228	0.367344
0	N	0.742898	0.321399	0.866648
0	N	0.283586	0.321675	0.628768
0	N	0.377768	0.736287	0.292495
0	N	0.648811	0.736509	0.204332
0	N	0.648678	0.264616	0.703617
0	N	0.377667	0.264435	0.791807
0	N	0.13195	0.616349	0.157342
0	N	0.894552	0.6167	0.339523
0	N	0.894448	0.384458	0.838971
0	N	0.131953	0.384382	0.65653
0	N	0.0765031	0.761935	0.430852
0	N	0.950754	0.762044	0.0673057
0	N	0.95003	0.239695	0.565151
0	N	0.0756368	0.238765	0.928725
0	C	0.390641	0.640526	0.997025
0	C	0.635727	0.640216	0.499737
0	C	0.635837	0.360252	0.999162
0	C	0.390762	0.360532	0.496328
0	C	0.29657	0.645806	0.0109426
0	C	0.729826	0.645521	0.485879
0	C	0.729891	0.355	0.985199
0	C	0.296652	0.355278	0.510191
0	C	0.238337	0.631582	0.91815
0	C	0.788015	0.631307	0.578695
0	C	0.788122	0.369212	0.0780388
0	C	0.238652	0.369458	0.417385
0	C	0.274917	0.609489	0.809866
0	C	0.751295	0.609243	0.686956
0	C	0.75148	0.391298	0.18631
0	C	0.275162	0.391436	0.309115
0	C	0.366385	0.599163	0.795751
0	C	0.659842	0.598913	0.700995
0	C	0.660012	0.401605	0.200454
0	C	0.366626	0.401758	0.295033
0	C	0.425223	0.613075	0.88838
0	C	0.601062	0.612769	0.60825
0	C	0.601212	0.387674	0.107798
0	C	0.42541	0.3879	0.38778
0	C	0.371628	0.698326	0.179732
0	C	0.654846	0.698215	0.317034
0	C	0.654808	0.302512	0.816407
0	C	0.371649	0.302643	0.679066
0	C	0.207575	0.681939	0.198166
0	C	0.8189	0.68203	0.298719
0	C	0.818834	0.318855	0.797936
0	C	0.207582	0.318894	0.697371
0	C	0.214364	0.739607	0.306264
0	C	0.812134	0.739826	0.190575
0	C	0.812113	0.261335	0.689756
0	C	0.214325	0.260809	0.805571
0	C	0.300661	0.798683	0.353257
0	C	0.725983	0.798849	0.143565
0	C	0.725773	0.202266	0.642821
0	C	0.300476	0.202152	0.852542
0	C	0.138743	0.751712	0.374515
0	C	0.888172	0.751561	0.123034
0	C	0.887677	0.249505	0.621493
0	C	0.138242	0.248702	0.873008
0	C	0.299768	0.951179	0.329605
0	C	0.726763	0.951401	0.167102
0	C	0.726797	0.0496552	0.666441
0	C	0.299585	0.0497272	0.828923
0	C	0.379642	0.0219892	0.38316
0	C	0.646885	0.0220009	0.113411
0	C	0.646941	0.97885	0.613042
0	C	0.379422	0.978817	0.882601
0	C	0.387369	0.993232	0.512749
0	C	0.639312	0.993182	0.983793
0	C	0.639149	0.00754818	0.483447
0	C	0.387057	0.00762138	0.0122185
0	C	0.391989	0.842613	0.536633
0	C	0.634978	0.842565	0.960018
0	C	0.634469	0.158139	0.459465
0	C	0.391492	0.158226	0.0360915
0	C	0.313317	0.767906	0.483109
0	C	0.713488	0.767981	0.0137407
0	C	0.713097	0.23299	0.512985
0	C	0.312968	0.232882	0.98238
0	H	0.438395	0.7341	0.333981
0	H	0.588214	0.734461	0.162756
0	H	0.588049	0.266765	0.662148
0	H	0.438262	0.266426	0.83337
0	H	0.131782	0.580421	0.0751131
0	H	0.894658	0.580835	0.42205
0	H	0.894619	0.420385	0.920946
0	H	0.131859	0.419936	0.573944
0	H	0.0728295	0.65696	0.177498
0	H	0.953638	0.6574	0.319673
0	H	0.953571	0.343893	0.81854
0	H	0.0728632	0.343685	0.676401
0	H	0.167354	0.639283	0.927817
0	H	0.858828	0.638916	0.569138
0	H	0.85903	0.361511	0.0684115
0	H	0.167556	0.361839	0.426961
0	H	0.231256	0.600581	0.734913
0	H	0.794949	0.600365	0.76192
0	H	0.795138	0.400202	0.261277
0	H	0.231514	0.4003	0.234138
0	H	0.392034	0.579931	0.709778
0	H	0.634158	0.579691	0.786958
0	H	0.63436	0.420852	0.28643
0	H	0.3923	0.420959	0.209054
0	H	0.495993	0.602888	0.877375
0	H	0.530292	0.602484	0.619221
0	H	0.530435	0.397828	0.118766
0	H	0.496182	0.398158	0.376787
0	H	0.373921	0.131171	0.368497
0	H	0.652533	0.131247	0.128002
0	H	0.652707	0.869659	0.627727
0	H	0.373703	0.869613	0.868008
0	H	0.44055	0.990828	0.339168
0	H	0.585945	0.990815	0.157298
0	H	0.586037	0.00997246	0.657062
0	H	0.44036	0.00993876	0.83866
0	H	0.446478	0.0436075	0.549024
0	H	0.580159	0.0433566	0.947431
0	H	0.580027	0.957128	0.447248
0	H	0.446186	0.95734	0.0485485
0	H	0.330517	0.0375011	0.557904
0	H	0.696135	0.0376539	0.93873
0	H	0.695974	0.963281	0.43825
0	H	0.330218	0.963212	0.0572777
0	H	0.393799	0.824613	0.630869
0	H	0.633399	0.824556	0.865268
0	H	0.632695	0.176058	0.365164
0	H	0.393081	0.176177	0.130755
0	H	0.454654	0.801422	0.503542
0	H	0.572145	0.801187	0.992658
0	H	0.571769	0.199297	0.492485
0	H	0.454279	0.199555	0.00339
0	H	0.252799	0.796184	0.529624
0	H	0.774113	0.796189	0.967461
0	H	0.773623	0.204762	0.466471
0	H	0.252333	0.204651	0.0286291
0	H	0.321049	0.658623	0.49571
0	H	0.705858	0.658682	0.00119558
0	H	0.705312	0.342258	0.500342
0	H	0.320608	0.342172	0.995003
0	H	0.296036	0.970758	0.235898
0	H	0.730396	0.971057	0.260985
0	H	0.730615	0.0301828	0.760333
0	H	0.295943	0.0299119	0.735022
0	H	0.238457	0.993719	0.365416
0	H	0.78807	0.994023	0.131395
0	H	0.78812	0.00731793	0.630626
0	H	0.238248	0.00703072	0.864627
