#******************************************
#
# CIF file created by Zeo++
# Zeo++ is an open source package to
# analyze microporous materials
#
#*******************************************

_cell_length_a		11.6892(0)
_cell_length_b		11.3693(0)
_cell_length_c		25.2245(0)
_cell_angle_alpha		90(0)
_cell_angle_beta		90(0)
_cell_angle_gamma		90(0)

_symmetry_space_group_name_H-M		'P1'
_symmetry_Int_Tables_number		1
_symmetry_cell_setting		Monoclinic

loop_
_symmetry_equiv_pos_as_xyz
'+x,+y,+z'

loop_
_atom_site_label
_atom_site_type_symbol
_atom_site_fract_x
_atom_site_fract_y
_atom_site_fract_z
0	C	0.623128	0.172902	0.134146
0	C	0.964251	0.831637	0.634352
0	C	0.464043	0.670725	0.321324
0	C	0.122662	0.32729	0.821644
0	C	0.582714	0.144742	0.190549
0	C	0.00577868	0.860524	0.69054
0	C	0.505035	0.641725	0.265086
0	C	0.0816872	0.356365	0.765432
0	C	0.547956	0.258175	0.218438
0	C	0.0393554	0.746793	0.718498
0	C	0.539001	0.755221	0.237012
0	C	0.0477005	0.243031	0.737283
0	C	0.454034	0.323857	0.188413
0	C	0.133948	0.681925	0.688549
0	C	0.63382	0.820031	0.266842
0	C	0.953821	0.176744	0.767092
0	C	0.488477	0.347006	0.131851
0	C	0.0989632	0.657714	0.63213
0	C	0.599022	0.844512	0.323262
0	C	0.988023	0.153159	0.823658
0	C	0.473254	0.454218	0.110936
0	C	0.113711	0.550106	0.611549
0	C	0.613876	0.952148	0.343792
0	C	0.972655	0.0458566	0.844465
0	C	0.49988	0.48561	0.0546833
0	C	0.0865723	0.517734	0.555438
0	C	0.58668	0.98471	0.39988
0	C	0.998704	0.0141728	0.900761
0	C	0.515883	0.376161	0.0196986
0	C	0.0703258	0.626625	0.520084
0	C	0.570753	0.875921	0.43532
0	C	0.0153364	0.123353	0.93589
0	C	0.593456	0.285588	0.0485696
0	C	0.992905	0.717506	0.548887
0	C	0.493299	0.784895	0.406622
0	C	0.0927937	0.214025	0.907004
0	C	0.533627	0.24157	0.100654
0	C	0.0532843	0.762585	0.600686
0	C	0.553419	0.739755	0.354791
0	C	0.0330612	0.258435	0.855002
0	C	0.628062	0.181529	0.0126902
0	C	0.957462	0.820817	0.512753
0	C	0.458063	0.681408	0.442699
0	C	0.127597	0.318064	0.942851
0	C	0.660777	0.216025	0.956767
0	C	0.925224	0.786027	0.456803
0	C	0.425371	0.71653	0.498526
0	C	0.161054	0.283295	0.99861
0	C	0.576231	0.29787	0.928754
0	C	0.00973935	0.703925	0.42892
0	C	0.51018	0.798328	0.526372
0	C	0.0767514	0.201364	0.0267063
0	C	0.569415	0.407999	0.966121
0	C	0.0164764	0.594244	0.466585
0	C	0.517102	0.908261	0.488862
0	C	0.069591	0.0912929	0.989303
0	C	0.509914	0.500193	0.931249
0	C	0.0753066	0.501374	0.431825
0	C	0.576212	0.00069718	0.523758
0	C	0.0108624	0.998862	0.0243338
0	C	0.560381	0.477777	0.875759
0	C	0.025112	0.523534	0.376246
0	C	0.526213	0.978062	0.579349
0	C	0.0614498	0.0216583	0.0797973
0	C	0.618383	0.354165	0.875972
0	C	0.967575	0.647317	0.376165
0	C	0.468049	0.85461	0.579154
0	C	0.119569	0.14517	0.0793767
0	C	0.46179	0.234392	0.921866
0	C	0.124246	0.767096	0.421774
0	C	0.624602	0.73484	0.533309
0	C	0.962304	0.264675	0.033902
0	C	0.431242	0.161965	0.0876955
0	C	0.155135	0.842362	0.587026
0	C	0.655343	0.660024	0.368402
0	C	0.930659	0.338035	0.867985
0	C	0.596882	0.282787	0.824985
0	C	0.989543	0.717846	0.324937
0	C	0.489381	0.783109	0.630149
0	C	0.0985947	0.21681	0.130343
0	C	0.657515	0.163368	0.825825
0	C	0.928603	0.837115	0.325292
0	C	0.428265	0.663957	0.629318
0	C	0.159601	0.336006	0.129382
0	C	0.636712	0.348701	0.775893
0	C	0.950471	0.650965	0.275939
0	C	0.44988	0.849334	0.67923
0	C	0.138221	0.150684	0.179409
0	C	0.58841	0.345696	0.726682
0	C	0.000286858	0.651598	0.227019
0	C	0.499557	0.848381	0.728177
0	C	0.0892733	0.152882	0.228492
0	C	0.644668	0.408726	0.681148
0	C	0.943789	0.588573	0.181547
0	C	0.443591	0.912188	0.773549
0	C	0.145307	0.0894703	0.27398
0	C	0.770801	0.439126	0.692071
0	C	0.816652	0.561601	0.191838
0	C	0.316397	0.93907	0.763383
0	C	0.27184	0.0603004	0.263319
0	C	0.781626	0.490146	0.747889
0	C	0.80306	0.512032	0.247779
0	C	0.302401	0.988126	0.707366
0	C	0.283466	0.00963954	0.207462
0	C	0.815008	0.528065	0.651507
0	C	0.771706	0.473197	0.15121
0	C	0.271788	0.0278586	0.8039
0	C	0.316325	0.971572	0.303881
0	C	0.495577	0.295385	0.310927
0	C	0.0963513	0.705572	0.810024
0	C	0.59418	0.794543	0.145044
0	C	0.996191	0.206254	0.644671
0	C	0.431813	0.244463	0.356401
0	C	0.157878	0.756745	0.856085
0	C	0.655732	0.742459	0.0991996
0	C	0.932048	0.25698	0.599277
0	C	0.420437	0.574108	0.818094
0	C	0.165457	0.425963	0.319251
0	C	0.668653	0.0733315	0.636007
0	C	0.920957	0.926324	0.137447
0	C	0.351072	0.547861	0.770211
0	C	0.235593	0.450268	0.271383
0	C	0.738949	0.0476641	0.683669
0	C	0.849932	0.953298	0.184729
0	C	0.48077	0.284743	0.715481
0	C	0.109448	0.709858	0.216045
0	C	0.608195	0.789156	0.739144
0	C	0.981202	0.21325	0.239549
0	C	0.429053	0.298011	0.66112
0	C	0.161945	0.695222	0.161892
0	C	0.660438	0.802558	0.793398
0	C	0.928097	0.197783	0.293492
0	O	0.497098	0.218295	0.269195
0	O	0.0879444	0.786063	0.769811
0	O	0.587704	0.715325	0.18583
0	O	0.997024	0.283014	0.686517
0	O	0.749356	0.182145	0.936887
0	O	0.836873	0.820059	0.436741
0	O	0.336679	0.683155	0.518456
0	O	0.249905	0.317019	0.0183035
0	O	0.468803	0.471784	0.836165
0	O	0.116957	0.528704	0.336684
0	O	0.618177	0.971526	0.6188
0	O	0.969653	0.028336	0.119277
0	O	0.733485	0.41007	0.787698
0	O	0.852327	0.591713	0.287469
0	O	0.351592	0.908325	0.667717
0	O	0.235371	0.0898651	0.167695
0	O	0.540213	0.391646	0.307843
0	O	0.0589746	0.606368	0.805326
0	O	0.55531	0.893262	0.149135
0	O	0.0415367	0.1103	0.647652
0	O	0.436272	0.667697	0.840074
0	O	0.149394	0.332924	0.341691
0	O	0.653925	0.166604	0.613544
0	O	0.937602	0.832394	0.115891
0	O	0.43005	0.224081	0.748172
0	O	0.161136	0.769513	0.248817
0	O	0.659529	0.729468	0.706269
0	O	0.931251	0.275005	0.207006
0	H	0.704168	0.223333	0.136002
0	H	0.883273	0.781118	0.636707
0	H	0.383156	0.72142	0.319084
0	H	0.203554	0.276623	0.819487
0	H	0.643314	0.0885643	0.114066
0	H	0.943656	0.915594	0.614106
0	H	0.443316	0.586814	0.341604
0	H	0.143401	0.41124	0.841918
0	H	0.650799	0.0992633	0.213032
0	H	0.938844	0.90753	0.713089
0	H	0.437616	0.595153	0.242662
0	H	0.149123	0.403036	0.74305
0	H	0.509845	0.0813428	0.189409
0	H	0.079821	0.922674	0.68899
0	H	0.578646	0.579089	0.266545
0	H	0.00827572	0.419048	0.766904
0	H	0.622067	0.315642	0.228008
0	H	0.964883	0.689329	0.72741
0	H	0.464816	0.812988	0.227984
0	H	0.12221	0.186019	0.727776
0	H	0.432953	0.406675	0.209498
0	H	0.156236	0.599763	0.709866
0	H	0.656385	0.902007	0.245462
0	H	0.933057	0.0941047	0.745813
0	H	0.374041	0.27016	0.188431
0	H	0.213288	0.736701	0.688232
0	H	0.712869	0.764872	0.267161
0	H	0.8737	0.230279	0.767115
0	H	0.440246	0.527006	0.13458
0	H	0.146943	0.477707	0.635371
0	H	0.647046	0.024454	0.319898
0	H	0.939774	0.97319	0.820697
0	H	0.577725	0.542343	0.0541182
0	H	0.00880501	0.46098	0.555186
0	H	0.508686	0.0411984	0.400067
0	H	0.0759766	0.956744	0.901433
0	H	0.429631	0.540066	0.0380929
0	H	0.156795	0.463019	0.538969
0	H	0.656713	0.0396611	0.416308
0	H	0.927751	0.96042	0.917169
0	H	0.429248	0.335543	0.0130632
0	H	0.156962	0.667097	0.513227
0	H	0.657485	0.835575	0.442064
0	H	0.928797	0.164005	0.942782
0	H	0.673813	0.332034	0.0605429
0	H	0.912849	0.671026	0.561249
0	H	0.413124	0.831301	0.394374
0	H	0.173087	0.167505	0.894983
0	H	0.700033	0.132946	0.0312601
0	H	0.885031	0.868875	0.531214
0	H	0.385914	0.633008	0.42417
0	H	0.199178	0.366936	0.92411
0	H	0.5566	0.116812	0.0105384
0	H	0.0283886	0.886184	0.510562
0	H	0.529215	0.616324	0.445018
0	H	0.0559762	0.382535	0.945272
0	H	0.658692	0.439901	0.973771
0	H	0.927145	0.562749	0.474446
0	H	0.427856	0.940132	0.481081
0	H	0.158816	0.059521	0.981362
0	H	0.524527	0.591006	0.944768
0	H	0.0599891	0.41076	0.445459
0	H	0.560932	0.0913998	0.510311
0	H	0.0259566	0.908154	0.0108847
0	H	0.416053	0.487647	0.930993
0	H	0.169266	0.513178	0.431529
0	H	0.670165	0.988953	0.523943
0	H	0.916914	0.0107201	0.02473
0	H	0.620014	0.547677	0.862585
0	H	0.965228	0.453841	0.363073
0	H	0.466896	0.0479533	0.592804
0	H	0.120942	0.95181	0.0931518
0	H	0.713291	0.368202	0.879172
0	H	0.872567	0.633874	0.379321
0	H	0.373136	0.868664	0.57591
0	H	0.214424	0.131112	0.0759032
0	H	0.405014	0.284319	0.895286
0	H	0.180732	0.716514	0.395287
0	H	0.681423	0.785049	0.559767
0	H	0.905896	0.214501	0.0605611
0	H	0.472482	0.146849	0.904417
0	H	0.113713	0.854345	0.404006
0	H	0.613957	0.647459	0.550933
0	H	0.973003	0.352133	0.0514425
0	H	0.41573	0.225374	0.959733
0	H	0.170563	0.776616	0.459539
0	H	0.670601	0.725501	0.495448
0	H	0.915764	0.273776	0.99617
0	H	0.365286	0.210245	0.0652708
0	H	0.221652	0.793646	0.565181
0	H	0.721064	0.708531	0.390876
0	H	0.864864	0.289831	0.890521
0	H	0.390301	0.129076	0.124049
0	H	0.195596	0.877549	0.623036
0	H	0.696684	0.626114	0.332357
0	H	0.889486	0.37068	0.831645
0	H	0.456664	0.0847261	0.0645996
0	H	0.129099	0.91818	0.563096
0	H	0.629147	0.583327	0.391719
0	H	0.956191	0.415388	0.890979
0	H	0.501554	0.267921	0.820485
0	H	0.0849083	0.73274	0.320611
0	H	0.58468	0.767888	0.634583
0	H	0.00332386	0.232033	0.134853
0	H	0.656655	0.121834	0.786464
0	H	0.929382	0.878067	0.285787
0	H	0.428883	0.62236	0.668683
0	H	0.158323	0.377979	0.168651
0	H	0.747075	0.171324	0.839056
0	H	0.839015	0.82916	0.338516
0	H	0.338696	0.672334	0.616124
0	H	0.249289	0.32765	0.116424
0	H	0.615764	0.102964	0.853642
0	H	0.970113	0.898062	0.352949
0	H	0.469625	0.603375	0.601455
0	H	0.118497	0.396145	0.101248
0	H	0.596367	0.490491	0.672217
0	H	0.990274	0.505257	0.173432
0	H	0.490244	0.995637	0.781146
0	H	0.0975161	0.00711672	0.282359
0	H	0.640915	0.352845	0.644923
0	H	0.949781	0.643199	0.145015
0	H	0.449886	0.858167	0.810242
0	H	0.140458	0.144629	0.310391
0	H	0.823406	0.356845	0.689829
0	H	0.76602	0.645034	0.18899
0	H	0.265797	0.855667	0.766478
0	H	0.32379	0.143003	0.265758
0	H	0.871458	0.497547	0.76181
0	H	0.71261	0.507554	0.261309
0	H	0.211807	0.992287	0.693945
0	H	0.373448	0.00261602	0.193693
0	H	0.735452	0.574576	0.752288
0	H	0.846784	0.426441	0.252856
0	H	0.345837	0.0737712	0.702071
0	H	0.237664	0.925093	0.202832
0	H	0.907292	0.542902	0.655982
0	H	0.679009	0.460451	0.155108
0	H	0.179138	0.0407295	0.800043
0	H	0.408668	0.957295	0.299434
0	H	0.79978	0.498125	0.610906
0	H	0.788831	0.502323	0.110633
0	H	0.289032	0.998998	0.844492
0	H	0.300875	0.0013616	0.344484
0	H	0.771754	0.613752	0.656092
0	H	0.813038	0.386647	0.15624
0	H	0.313288	0.114245	0.798618
0	H	0.273614	0.885645	0.299199
0	H	0.338562	0.240806	0.348218
0	H	0.251521	0.760058	0.848562
0	H	0.749163	0.737967	0.106923
0	H	0.838401	0.256154	0.606838
0	H	0.443645	0.297302	0.39248
0	H	0.144894	0.703817	0.892057
0	H	0.643607	0.795048	0.0630875
0	H	0.947152	0.206687	0.562734
0	H	0.458303	0.152701	0.365122
0	H	0.131164	0.848517	0.864537
0	H	0.628147	0.650886	0.0908592
0	H	0.954976	0.350223	0.591774
0	H	0.389511	0.590343	0.734772
0	H	0.194	0.412215	0.235678
0	H	0.699133	0.0874989	0.719387
0	H	0.887587	0.912043	0.220643
0	H	0.346342	0.452405	0.762086
0	H	0.246036	0.545576	0.264111
0	H	0.746835	0.952136	0.69116
0	H	0.844073	0.0489296	0.192313
0	H	0.262736	0.580635	0.774038
0	H	0.321391	0.410922	0.274441
0	H	0.825867	0.0841753	0.680107
0	H	0.762079	0.919491	0.180454
0	H	0.346055	0.253299	0.658415
0	H	0.245746	0.738485	0.159485
0	H	0.744242	0.759347	0.795635
0	H	0.84473	0.241791	0.296014
0	H	0.48593	0.259939	0.6306
0	H	0.106394	0.734104	0.131064
0	H	0.604721	0.76274	0.823919
0	H	0.983855	0.235451	0.324569
0	H	0.415848	0.39049	0.650375
0	H	0.173911	0.602487	0.151283
0	H	0.672255	0.895027	0.804493
0	H	0.915406	0.104847	0.303558
