#******************************************
#
# CIF file created by Zeo++
# Zeo++ is an open source package to
# analyze microporous materials
#
#*******************************************

_cell_length_a		8.46685(0)
_cell_length_b		27.272(0)
_cell_length_c		9.93147(0)
_cell_angle_alpha		90(0)
_cell_angle_beta		119.224(0)
_cell_angle_gamma		90(0)

_symmetry_space_group_name_H-M		'P1'
_symmetry_Int_Tables_number		1
_symmetry_cell_setting		Monoclinic

loop_
_symmetry_equiv_pos_as_xyz
'+x,+y,+z'

loop_
_atom_site_label
_atom_site_type_symbol
_atom_site_fract_x
_atom_site_fract_y
_atom_site_fract_z
0	O	0.52013	0.382211	0.0571414
0	O	0.613065	0.884511	0.936764
0	O	0.409611	0.409401	0.289023
0	O	0.714836	0.913867	0.699977
0	O	0.480203	0.402353	0.539819
0	O	0.63539	0.916105	0.446079
0	O	0.589042	0.281116	0.169328
0	O	0.551221	0.783482	0.821488
0	O	0.952958	0.45032	0.612684
0	O	0.176094	0.952862	0.379414
0	O	0.000149371	0.344807	0.715994
0	O	0.125009	0.846775	0.283228
0	O	0.140989	0.291786	0.915634
0	O	0.985276	0.794474	0.0815522
0	O	0.119108	0.433958	0.447516
0	O	0.996342	0.944001	0.533963
0	O	0.837128	0.117124	0.747947
0	O	0.288754	0.618575	0.25322
0	O	0.153301	0.0957321	0.723222
0	O	0.969827	0.597522	0.275557
0	O	0.455517	0.0842504	0.833269
0	O	0.66984	0.581798	0.163132
0	O	0.879174	0.221528	0.752654
0	O	0.23845	0.723045	0.241089
0	O	0.471495	0.0511183	0.279011
0	O	0.655677	0.552335	0.725356
0	O	0.561538	0.157631	0.27984
0	O	0.573136	0.659593	0.712859
0	O	0.786529	0.213429	0.387297
0	O	0.348195	0.715438	0.609341
0	O	0.407206	0.0610812	0.537548
0	O	0.723264	0.560086	0.463648
0	C	0.603637	0.365246	0.215337
0	C	0.5297	0.867659	0.77846
0	H	0.747136	0.355523	0.251037
0	H	0.387824	0.856494	0.744235
0	C	0.60047	0.404615	0.325808
0	C	0.525792	0.907741	0.667075
0	H	0.682703	0.393221	0.449488
0	H	0.441942	0.896364	0.543512
0	C	0.658453	0.455012	0.299078
0	C	0.464896	0.957465	0.695665
0	H	0.626807	0.48322	0.363464
0	H	0.494964	0.986286	0.631828
0	H	0.80946	0.45559	0.353098
0	H	0.314059	0.957543	0.641599
0	C	0.567468	0.468156	0.127736
0	C	0.555109	0.970272	0.867243
0	H	0.420061	0.473089	0.0835849
0	H	0.70169	0.976663	0.91102
0	H	0.617534	0.503783	0.110263
0	H	0.501067	0.00510122	0.885448
0	C	0.597058	0.427131	0.0378354
0	C	0.531072	0.928244	0.957096
0	H	0.520351	0.432223	0.911395
0	H	0.607783	0.933283	0.0835921
0	H	0.741412	0.421112	0.0746303
0	H	0.387773	0.920785	0.920966
0	C	0.369198	0.409436	0.406595
0	C	0.74873	0.92046	0.579864
0	C	0.495484	0.319181	0.206112
0	C	0.64245	0.822718	0.786777
0	H	0.499941	0.310439	0.316086
0	H	0.639929	0.81496	0.677007
0	H	0.353521	0.32181	0.110711
0	H	0.783902	0.825882	0.883169
0	C	0.509718	0.233572	0.146682
0	C	0.633106	0.736349	0.84221
0	H	0.510529	0.219306	0.0419748
0	H	0.643078	0.722197	0.951227
0	H	0.368467	0.234133	0.124849
0	H	0.770551	0.737409	0.85545
0	C	0.116191	0.421284	0.681534
0	C	0.0103298	0.924975	0.310081
0	H	0.232833	0.447259	0.736696
0	H	0.896315	0.951512	0.249821
0	C	0.126368	0.38453	0.804182
0	C	0.00116946	0.886578	0.192076
0	H	0.264885	0.367796	0.869692
0	H	0.862232	0.870084	0.126878
0	C	0.0683597	0.406904	0.91442
0	C	0.0608567	0.907363	0.0808922
0	H	0.0483151	0.37707	0.980548
0	H	0.081011	0.876732	0.0172465
0	H	0.181966	0.429204	0.00235445
0	H	0.94771	0.929238	0.990808
0	C	0.895287	0.437228	0.827872
0	C	0.234222	0.937678	0.165259
0	H	0.86046	0.455626	0.908905
0	H	0.268256	0.955301	0.0826168
0	H	0.779431	0.412507	0.755215
0	H	0.350083	0.913121	0.23875
0	C	0.915443	0.474805	0.723391
0	C	0.216017	0.976135	0.268505
0	H	0.787186	0.494486	0.646957
0	H	0.345691	0.995243	0.345368
0	H	0.0235009	0.501728	0.788107
0	H	0.110031	0.00346908	0.202731
0	C	0.018554	0.300436	0.787617
0	C	0.106219	0.802477	0.210793
0	C	0.113952	0.394585	0.544676
0	C	0.00515637	0.901596	0.448283
0	H	0.233571	0.370603	0.583118
0	H	0.884321	0.8783	0.411338
0	H	0.987592	0.373693	0.477118
0	H	0.130051	0.880966	0.522907
0	C	0.166283	0.418523	0.334765
0	C	0.948619	0.93314	0.649525
0	H	0.124667	0.45042	0.254561
0	H	0.97676	0.968848	0.713681
0	H	0.0894909	0.385651	0.27116
0	H	0.0348417	0.903968	0.728596
0	C	0.00556073	0.14342	0.833353
0	C	0.118956	0.644043	0.164961
0	H	0.0137251	0.157358	0.942634
0	H	0.111996	0.657504	0.0558291
0	C	0.16745	0.109047	0.872762
0	C	0.957858	0.609369	0.125871
0	H	0.299704	0.128074	0.942267
0	H	0.825227	0.627769	0.0533078
0	C	0.156409	0.0624072	0.953178
0	C	0.973158	0.561724	0.0517384
0	H	0.257489	0.0354826	0.958438
0	H	0.87026	0.535199	0.0451739
0	H	0.202072	0.0710349	0.0765615
0	H	0.93381	0.56901	0.928927
0	C	0.967424	0.0392976	0.875486
0	C	0.16267	0.539125	0.138908
0	H	0.959421	0.0105882	0.950938
0	H	0.175099	0.508079	0.0728839
0	H	0.944165	0.0203364	0.767818
0	H	0.183477	0.52387	0.250004
0	C	0.818905	0.0774836	0.836115
0	C	0.309198	0.577341	0.171383
0	H	0.680326	0.0637599	0.756115
0	H	0.448546	0.564517	0.253363
0	H	0.819812	0.0927322	0.939442
0	H	0.307399	0.590699	0.065795
0	C	0.307652	0.0822204	0.719937
0	C	0.817224	0.581377	0.277245
0	C	0.993195	0.186352	0.729665
0	C	0.128092	0.68731	0.266644
0	H	0.126206	0.202805	0.763315
0	H	0.994027	0.703015	0.232775
0	H	0.923649	0.175651	0.605347
0	H	0.199119	0.677159	0.391392
0	C	0.863317	0.267594	0.679571
0	C	0.258073	0.768641	0.317867
0	H	0.732675	0.282259	0.663396
0	H	0.390425	0.782612	0.336323
0	H	0.856207	0.263961	0.56507
0	H	0.263383	0.764519	0.431554
0	C	0.571669	0.0813773	0.414194
0	C	0.560614	0.581789	0.587407
0	H	0.667898	0.0570398	0.510997
0	H	0.465738	0.556916	0.491769
0	C	0.684835	0.120596	0.388609
0	C	0.44733	0.622552	0.606174
0	H	0.774281	0.140001	0.5012
0	H	0.361837	0.641352	0.491665
0	C	0.796623	0.0988641	0.319842
0	C	0.329943	0.603327	0.672793
0	H	0.917086	0.0802541	0.413726
0	H	0.209815	0.584533	0.579076
0	H	0.850061	0.129102	0.278717
0	H	0.275487	0.634798	0.708319
0	C	0.688665	0.0631319	0.18755
0	C	0.433425	0.568773	0.809483
0	H	0.589689	0.0839905	0.0838486
0	H	0.532096	0.590222	0.911793
0	H	0.778598	0.0441998	0.152759
0	H	0.340731	0.551521	0.844335
0	C	0.587538	0.0259292	0.232206
0	C	0.534629	0.529659	0.771344
0	H	0.678654	0.000962628	0.325949
0	H	0.443104	0.504378	0.679225
0	H	0.487984	0.00427853	0.132653
0	H	0.630345	0.508496	0.87386
0	C	0.636505	0.202907	0.285363
0	C	0.500438	0.70516	0.707698
0	C	0.429096	0.101632	0.451891
0	C	0.707771	0.600489	0.553073
0	H	0.479062	0.133892	0.528903
0	H	0.665414	0.633755	0.480337
0	H	0.299883	0.109433	0.347171
0	H	0.837955	0.606123	0.659314
0	C	0.252667	0.063843	0.55837
0	C	0.874848	0.562374	0.438688
0	H	0.20601	0.0246512	0.545772
0	H	0.918211	0.522973	0.447793
0	H	0.140977	0.0860292	0.468948
0	H	0.989942	0.58377	0.527979
