#******************************************
#
# CIF file created by Zeo++
# Zeo++ is an open source package to
# analyze microporous materials
#
#*******************************************

_cell_length_a		18.7881(0)
_cell_length_b		8.40604(0)
_cell_length_c		16.916(0)
_cell_angle_alpha		90(0)
_cell_angle_beta		113.734(0)
_cell_angle_gamma		90(0)

_symmetry_space_group_name_H-M		'P1'
_symmetry_Int_Tables_number		1
_symmetry_cell_setting		Monoclinic

loop_
_symmetry_equiv_pos_as_xyz
'+x,+y,+z'

loop_
_atom_site_label
_atom_site_type_symbol
_atom_site_fract_x
_atom_site_fract_y
_atom_site_fract_z
0	N	0.352087	0.545453	0.418643
0	N	0.77287	0.0457995	0.159371
0	N	0.787597	0.475774	0.656115
0	N	0.367151	0.974835	0.91547
0	C	0.332941	0.692684	0.360951
0	C	0.790612	0.195859	0.214737
0	C	0.806695	0.328285	0.713649
0	C	0.349543	0.82476	0.86013
0	C	0.245955	0.750541	0.327385
0	C	0.876428	0.259199	0.244601
0	C	0.893664	0.270531	0.747092
0	C	0.263792	0.761069	0.8303
0	C	0.233007	0.897625	0.268844
0	C	0.888895	0.408719	0.301111
0	C	0.906774	0.123376	0.805617
0	C	0.251433	0.61162	0.773766
0	H	0.180167	0.960552	0.267282
0	H	0.94003	0.474452	0.299582
0	H	0.959504	0.0604394	0.806903
0	H	0.200345	0.545742	0.775232
0	H	0.219188	0.862271	0.200927
0	H	0.90524	0.376456	0.369996
0	H	0.920808	0.158765	0.873549
0	H	0.2351	0.64392	0.704872
0	C	0.300653	0.0116095	0.300538
0	C	0.81951	0.518071	0.27008
0	C	0.839094	0.00950682	0.774139
0	C	0.320895	0.502483	0.804797
0	C	0.364651	0.984026	0.372393
0	C	0.754514	0.484933	0.200403
0	C	0.77506	0.0369912	0.702308
0	C	0.385872	0.535798	0.874469
0	H	0.411539	0.0711435	0.398214
0	H	0.705848	0.567995	0.174918
0	H	0.728193	0.949825	0.67656
0	H	0.434608	0.452909	0.899948
0	C	0.379906	0.830045	0.42073
0	C	0.740541	0.328906	0.154123
0	C	0.759684	0.190926	0.653893
0	C	0.399722	0.691803	0.920776
0	H	0.443453	0.802464	0.448017
0	H	0.67712	0.297548	0.128521
0	H	0.69612	0.218403	0.626718
0	H	0.463126	0.723335	0.946434
0	H	0.364449	0.839772	0.47749
0	H	0.754195	0.337828	0.0961298
0	H	0.775015	0.181191	0.597054
0	H	0.385996	0.682695	0.978719
0	C	0.294342	0.155346	0.245269
0	C	0.826258	0.66294	0.324554
0	C	0.845478	0.865777	0.829436
0	C	0.314237	0.357739	0.750282
0	H	0.338912	0.245012	0.282251
0	H	0.779153	0.748759	0.289161
0	H	0.801069	0.775902	0.792385
0	H	0.361501	0.272164	0.785551
0	H	0.238089	0.217674	0.229748
0	H	0.88078	0.729033	0.335717
0	H	0.901849	0.803773	0.845077
0	H	0.259834	0.291351	0.739288
0	C	0.303429	0.113416	0.161463
0	C	0.823002	0.620878	0.411338
0	C	0.836211	0.907238	0.913202
0	C	0.317193	0.400006	0.663384
0	H	0.302314	0.225852	0.125863
0	H	0.824895	0.73379	0.446928
0	H	0.837208	0.794536	0.948548
0	H	0.315334	0.28711	0.62779
0	H	0.251941	0.0455765	0.11757
0	H	0.876319	0.555409	0.452964
0	H	0.88773	0.974767	0.957302
0	H	0.263744	0.465193	0.621857
0	C	0.378239	0.0232183	0.172798
0	C	0.750422	0.527938	0.405168
0	C	0.761449	0.997457	0.902018
0	C	0.389579	0.49333	0.669242
0	H	0.429592	0.0773924	0.225927
0	H	0.697231	0.579561	0.353401
0	H	0.709971	0.943243	0.849088
0	H	0.442937	0.441739	0.720775
0	H	0.38831	0.0337598	0.112269
0	H	0.74333	0.539633	0.467481
0	H	0.751642	0.987222	0.962732
0	H	0.396379	0.481976	0.606753
0	N	0.377388	0.850405	0.191185
0	N	0.751742	0.354981	0.387529
0	N	0.762318	0.170183	0.883466
0	N	0.388228	0.66616	0.687109
0	C	0.414612	0.793189	0.276402
0	C	0.711975	0.295913	0.303114
0	C	0.725099	0.227465	0.798269
0	C	0.428071	0.725017	0.771571
0	C	0.367528	0.651351	0.290812
0	C	0.758223	0.154533	0.28681
0	C	0.772195	0.369352	0.783882
0	C	0.381897	0.866284	0.788043
0	C	0.310701	0.60941	0.198006
0	C	0.817342	0.114013	0.378765
0	C	0.829124	0.411069	0.876685
0	C	0.322772	0.90711	0.696146
0	H	0.252512	0.573824	0.192529
0	H	0.874538	0.076732	0.381726
0	H	0.887327	0.446418	0.882124
0	H	0.265629	0.944702	0.693268
0	H	0.331974	0.502702	0.17558
0	H	0.796695	0.00899363	0.403242
0	H	0.807951	0.51787	0.89915
0	H	0.343526	0.0119893	0.671676
0	C	0.307492	0.753314	0.140159
0	C	0.823065	0.259975	0.436223
0	C	0.832223	0.267235	0.934532
0	C	0.316864	0.761191	0.638594
0	H	0.311055	0.717331	0.0786354
0	H	0.823004	0.226357	0.499743
0	H	0.82858	0.303302	0.996008
0	H	0.316742	0.794783	0.574986
0	H	0.252471	0.822261	0.12271
0	H	0.877292	0.329739	0.449658
0	H	0.88722	0.198198	0.952106
0	H	0.262665	0.691463	0.625368
0	C	0.422465	0.515336	0.33169
0	C	0.703266	0.0177774	0.24728
0	C	0.717356	0.505596	0.743218
0	C	0.436874	0.00296456	0.827706
0	C	0.477532	0.448156	0.306816
0	C	0.64766	0.95196	0.271805
0	C	0.662351	0.572801	0.768184
0	C	0.492585	0.0687458	0.803341
0	H	0.48389	0.488343	0.248732
0	H	0.640635	0.994222	0.329196
0	H	0.656012	0.532522	0.826259
0	H	0.499685	0.0264989	0.745998
0	C	0.52696	0.328744	0.35787
0	C	0.598571	0.83137	0.221349
0	C	0.612902	0.692216	0.717179
0	C	0.541664	0.189267	0.853877
0	H	0.570308	0.277106	0.337547
0	H	0.554467	0.78181	0.241087
0	H	0.569593	0.743794	0.737594
0	H	0.585809	0.238757	0.834195
0	C	0.52212	0.282581	0.434855
0	C	0.60472	0.780731	0.145656
0	C	0.617594	0.73839	0.640125
0	C	0.53537	0.239938	0.929487
0	C	0.465705	0.350917	0.461884
0	C	0.662209	0.846428	0.119578
0	C	0.674028	0.670226	0.613095
0	C	0.4778	0.174258	0.955437
0	C	0.41448	0.462081	0.407231
0	C	0.711757	0.961527	0.172506
0	C	0.725269	0.559014	0.667673
0	C	0.428287	0.0591909	0.90243
0	C	0.298746	0.459115	0.441293
0	C	0.825173	0.962305	0.133955
0	C	0.840823	0.562365	0.633372
0	C	0.314731	0.0582548	0.940748
0	O	0.249233	0.517986	0.462517
0	O	0.872454	0.023996	0.110083
0	O	0.890236	0.503586	0.611959
0	O	0.267357	0.996458	0.964439
0	O	0.311595	0.299403	0.441484
0	O	0.81408	0.802075	0.134264
0	O	0.827978	0.722085	0.633256
0	O	0.325751	0.218521	0.940445
0	C	0.266078	0.196611	0.472754
0	C	0.860129	0.701812	0.10253
0	C	0.873484	0.824966	0.602
0	C	0.279471	0.318648	0.971939
0	H	0.267943	0.0818967	0.441712
0	H	0.852784	0.583581	0.127006
0	H	0.871278	0.939865	0.632706
0	H	0.286621	0.436833	0.947254
0	H	0.296311	0.190408	0.543573
0	H	0.83484	0.706908	0.0315611
0	H	0.843565	0.830622	0.531143
0	H	0.304777	0.314035	0.0429177
0	H	0.206864	0.241922	0.453161
0	H	0.920798	0.740674	0.129273
0	H	0.932809	0.780157	0.621927
0	H	0.218882	0.279327	0.945276
0	O	0.23058	0.809213	0.398302
0	O	0.888789	0.316085	0.171407
0	O	0.908816	0.211931	0.676022
0	O	0.251553	0.704085	0.90355
0	C	0.183061	0.622271	0.283002
0	C	0.941898	0.136201	0.289264
0	C	0.956537	0.398943	0.791375
0	C	0.198095	0.883582	0.785576
0	O	0.190444	0.491476	0.256925
0	O	0.937502	0.00403105	0.315599
0	O	0.949163	0.529881	0.817285
0	O	0.202121	0.0154168	0.758644
0	O	0.112946	0.677025	0.277355
0	O	0.0108078	0.198876	0.295111
0	O	0.0265777	0.343676	0.797127
0	O	0.129421	0.820647	0.780357
0	C	0.04744	0.567043	0.242603
0	C	0.0786951	0.0952226	0.330703
0	C	0.0923213	0.45299	0.8319
0	C	0.0612899	0.923578	0.744707
0	H	0.00600533	0.616372	0.266955
0	H	0.121967	0.160284	0.315031
0	H	0.134053	0.400896	0.808817
0	H	0.0182904	0.858389	0.760776
0	H	0.0252945	0.570007	0.172202
0	H	0.0953154	0.0836143	0.400246
0	H	0.113621	0.452404	0.902249
0	H	0.0444236	0.934591	0.675093
0	H	0.0647335	0.445553	0.266634
0	H	0.0657921	0.977884	0.299642
0	H	0.0756433	0.573909	0.806555
0	H	0.0740243	0.041208	0.775441
0	O	0.478721	0.83838	0.325624
0	O	0.64672	0.339027	0.25611
0	O	0.660959	0.182425	0.749067
0	O	0.493326	0.681749	0.818486
0	O	0.56971	0.175185	0.492822
0	O	0.558229	0.671589	0.088236
0	O	0.569845	0.845509	0.58211
0	O	0.581771	0.349205	0.986919
0	C	0.615241	0.0700402	0.463155
0	C	0.511644	0.568185	0.117234
0	C	0.523958	0.949935	0.611658
0	C	0.628473	0.452384	0.957957
0	H	0.63917	0.986103	0.518104
0	H	0.488875	0.482831	0.0627991
0	H	0.499858	0.0337854	0.556692
0	H	0.651232	0.537793	0.0123684
0	H	0.576701	0.00622111	0.404846
0	H	0.549197	0.506181	0.176694
0	H	0.562278	0.0139672	0.670005
0	H	0.591011	0.51435	0.898442
0	H	0.660861	0.137512	0.453645
0	H	0.465278	0.636529	0.124718
0	H	0.478486	0.88181	0.621109
0	H	0.674826	0.383829	0.950571
0	O	0.458399	0.302928	0.536498
0	O	0.672521	0.79201	0.0477164
0	O	0.681278	0.718449	0.53848
0	O	0.467381	0.228608	0.0272469
0	C	0.52726	0.33928	0.614615
0	C	0.608393	0.836496	0.967038
0	C	0.612615	0.681104	0.46036
0	C	0.531385	0.183796	0.107968
0	H	0.512707	0.287048	0.665489
0	H	0.626232	0.787123	0.91796
0	H	0.62687	0.734065	0.409431
0	H	0.513421	0.233044	0.15698
0	H	0.579327	0.28138	0.613332
0	H	0.553803	0.780025	0.962638
0	H	0.560261	0.737706	0.461619
0	H	0.586035	0.240229	0.112552
0	H	0.53452	0.468131	0.621503
0	H	0.603591	0.965807	0.962583
0	H	0.606005	0.552141	0.453517
0	H	0.536115	0.0544555	0.112312
0	H	0.230286	0.718847	0.4379
0	H	0.886796	0.225043	0.131162
0	H	0.90879	0.302256	0.63629
0	H	0.253378	0.795229	0.943697
