#******************************************
#
# CIF file created by Zeo++
# Zeo++ is an open source package to
# analyze microporous materials
#
#*******************************************

_cell_length_a		10.0938(0)
_cell_length_b		20.3897(0)
_cell_length_c		34.3596(0)
_cell_angle_alpha		90(0)
_cell_angle_beta		90(0)
_cell_angle_gamma		90(0)

_symmetry_space_group_name_H-M		'P1'
_symmetry_Int_Tables_number		1
_symmetry_cell_setting		Monoclinic

loop_
_symmetry_equiv_pos_as_xyz
'+x,+y,+z'

loop_
_atom_site_label
_atom_site_type_symbol
_atom_site_fract_x
_atom_site_fract_y
_atom_site_fract_z
0	C	0.789877	0.0788812	0.0520132
0	C	0.719497	0.921099	0.548959
0	C	0.218663	0.578974	0.441808
0	C	0.288761	0.421139	0.938934
0	O	0.853156	0.0875881	0.0144532
0	O	0.654622	0.913275	0.511595
0	O	0.153793	0.586966	0.479174
0	O	0.351888	0.412419	0.976508
0	C	0.772133	0.0593506	0.983858
0	C	0.734878	0.941552	0.48084
0	C	0.233879	0.558578	0.509919
0	C	0.270699	0.440602	0.00709868
0	C	0.756043	0.11033	0.952029
0	C	0.748587	0.890844	0.448785
0	C	0.247538	0.609048	0.542109
0	C	0.254565	0.389536	0.0388664
0	C	0.827615	0.993961	0.970645
0	C	0.679698	0.00721558	0.468015
0	C	0.178674	0.492883	0.52266
0	C	0.326252	0.505946	0.0203614
0	O	0.643807	0.0472774	0.00153684
0	O	0.864228	0.952752	0.498077
0	O	0.363341	0.547434	0.492713
0	O	0.142498	0.45276	0.989394
0	C	0.641994	0.0679655	0.0418162
0	C	0.867039	0.932228	0.538367
0	C	0.366185	0.567796	0.452397
0	C	0.140836	0.432099	0.949108
0	C	0.56579	0.0146978	0.0658764
0	C	0.94339	0.985798	0.562233
0	C	0.442707	0.514258	0.428544
0	C	0.0648417	0.485461	0.925047
0	N	0.529716	0.0505151	0.102101
0	N	0.979478	0.950129	0.598478
0	N	0.478866	0.550001	0.39232
0	N	0.0288675	0.449641	0.888813
0	C	0.508075	0.0227938	0.135221
0	C	0.0013544	0.977812	0.631563
0	C	0.501196	0.522389	0.359232
0	C	0.00759247	0.477235	0.855639
0	C	0.461764	0.0646767	0.168243
0	C	0.0475859	0.935686	0.664472
0	C	0.547462	0.564534	0.326338
0	C	0.961413	0.435343	0.822608
0	N	0.45252	0.0332833	0.203166
0	N	0.0575339	0.966921	0.69941
0	N	0.55714	0.533272	0.291398
0	N	0.952105	0.46677	0.787689
0	C	0.427609	0.131277	0.163831
0	C	0.0806366	0.868968	0.659944
0	C	0.581104	0.631171	0.33086
0	C	0.927733	0.368684	0.826983
0	C	0.378933	0.165444	0.195983
0	C	0.12901	0.834504	0.692015
0	C	0.629808	0.665524	0.298786
0	C	0.879403	0.334499	0.794795
0	C	0.367705	0.133606	0.231856
0	C	0.140974	0.866174	0.727929
0	C	0.641455	0.633845	0.262869
0	C	0.868066	0.366361	0.75893
0	C	0.408051	0.0676708	0.234575
0	C	0.101581	0.932228	0.730747
0	C	0.601552	0.567867	0.260067
0	C	0.90805	0.432351	0.75624
0	C	0.407469	0.030063	0.271977
0	C	0.102203	0.969826	0.768135
0	C	0.602295	0.530253	0.222693
0	C	0.907603	0.46999	0.71884
0	N	0.404192	0.0634417	0.303824
0	N	0.104305	0.93643	0.799964
0	N	0.604636	0.563595	0.190837
0	N	0.904454	0.436706	0.686962
0	C	0.402175	0.0343995	0.343545
0	C	0.106065	0.965597	0.839656
0	C	0.606586	0.53441	0.151158
0	C	0.902568	0.465766	0.647233
0	C	0.475213	0.0868517	0.369766
0	C	0.0331084	0.913184	0.8659
0	C	0.533684	0.586901	0.124939
0	C	0.975768	0.413315	0.621046
0	O	0.43774	0.0779917	0.409841
0	O	0.0704632	0.922325	0.905951
0	O	0.570956	0.577856	0.0848792
0	O	0.93874	0.422261	0.580939
0	C	0.384011	0.138033	0.42639
0	C	0.123959	0.862393	0.92266
0	C	0.624848	0.637751	0.0682362
0	C	0.88523	0.362263	0.564296
0	C	0.240376	0.128038	0.437708
0	C	0.267252	0.872806	0.934223
0	C	0.768288	0.627389	0.0568001
0	C	0.741749	0.37218	0.552814
0	C	0.473227	0.159861	0.459448
0	C	0.0340629	0.840555	0.955551
0	C	0.535592	0.659592	0.0351967
0	C	0.974728	0.340498	0.53128
0	O	0.38854	0.186215	0.395351
0	O	0.120548	0.814103	0.89166
0	O	0.620907	0.686071	0.0992144
0	O	0.889184	0.31404	0.595324
0	C	0.441414	0.158827	0.36001
0	C	0.0674178	0.841183	0.856274
0	C	0.567825	0.658921	0.134587
0	C	0.941704	0.341342	0.630739
0	C	0.561851	0.202002	0.346285
0	C	0.947265	0.797814	0.842576
0	C	0.447487	0.702185	0.148278
0	C	0.0619028	0.298057	0.644513
0	N	0.631349	0.162655	0.315924
0	N	0.877273	0.837296	0.812371
0	N	0.377815	0.662659	0.178527
0	N	0.131639	0.337403	0.674841
0	C	0.624801	0.175962	0.27926
0	C	0.884281	0.824303	0.775678
0	C	0.38472	0.675639	0.215211
0	C	0.124954	0.324165	0.711516
0	C	0.696522	0.13292	0.251045
0	C	0.812318	0.867296	0.747533
0	C	0.312448	0.632639	0.243287
0	C	0.196378	0.367273	0.739765
0	N	0.71284	0.159273	0.21482
0	N	0.795311	0.840532	0.711452
0	N	0.295384	0.659383	0.279374
0	N	0.212618	0.340957	0.775999
0	C	0.740998	0.069463	0.26055
0	C	0.768628	0.930961	0.756825
0	C	0.26828	0.569093	0.233923
0	C	0.240454	0.430801	0.73029
0	C	0.803004	0.0319899	0.231794
0	C	0.706571	0.968234	0.727976
0	C	0.205456	0.531951	0.262683
0	C	0.301937	0.46839	0.759086
0	C	0.819385	0.0580315	0.194534
0	C	0.689358	0.941765	0.690861
0	C	0.188107	0.558409	0.299794
0	C	0.318207	0.442396	0.796361
0	C	0.772961	0.121993	0.18706
0	C	0.735231	0.877621	0.683628
0	C	0.234659	0.622398	0.307119
0	C	0.272221	0.378353	0.803809
0	C	0.789294	0.153829	0.148137
0	C	0.719092	0.845445	0.644819
0	C	0.218429	0.654574	0.345933
0	C	0.288379	0.34648	0.842732
0	N	0.792072	0.116469	0.117874
0	N	0.717058	0.882847	0.614573
0	N	0.216551	0.617196	0.376179
0	N	0.291296	0.383761	0.873031
0	C	0.820368	0.140641	0.0777877
0	C	0.689074	0.858947	0.574439
0	C	0.188434	0.641113	0.41631
0	C	0.319476	0.359456	0.913107
0	C	0.651072	0.953187	0.0697475
0	C	0.85859	0.0474813	0.5659
0	C	0.357615	0.452687	0.424773
0	C	0.149997	0.547038	0.921269
0	C	0.736751	0.943161	0.101303
0	C	0.773035	0.0579566	0.597424
0	C	0.271971	0.4425	0.393227
0	C	0.235685	0.557093	0.889727
0	C	0.81329	0.886093	0.103498
0	C	0.696211	0.114968	0.599308
0	C	0.1945	0.385712	0.391321
0	C	0.312065	0.614208	0.88753
0	C	0.806465	0.838986	0.0740247
0	C	0.703021	0.161694	0.569622
0	C	0.200627	0.338967	0.42101
0	C	0.304895	0.661377	0.916959
0	C	0.724371	0.849708	0.0418616
0	C	0.785629	0.150705	0.537608
0	C	0.28352	0.349629	0.453
0	C	0.222658	0.650661	0.949089
0	C	0.647444	0.906518	0.0396893
0	C	0.86272	0.0939254	0.535713
0	C	0.361337	0.406156	0.454913
0	C	0.145937	0.593797	0.951282
0	C	0.429808	0.997748	0.0481684
0	C	0.07956	0.00247917	0.544591
0	C	0.578875	0.497585	0.446235
0	C	0.928812	0.5024	0.942713
0	C	0.354996	0.947755	0.0658662
0	C	0.154207	0.0529413	0.561896
0	C	0.653449	0.447058	0.428977
0	C	0.853987	0.552391	0.925026
0	C	0.226565	0.934216	0.0531935
0	C	0.283047	0.0658414	0.54934
0	C	0.78247	0.434317	0.441426
0	C	0.725563	0.565867	0.93773
0	C	0.171367	0.970142	0.0225174
0	C	0.338689	0.0288514	0.519187
0	C	0.838418	0.471523	0.471435
0	C	0.670455	0.529879	0.968395
0	C	0.246268	0.0187353	0.00421586
0	C	0.263973	0.97974	0.501314
0	C	0.763698	0.520607	0.489341
0	C	0.745343	0.481229	0.986645
0	C	0.375084	0.0325291	0.0169185
0	C	0.13473	0.966606	0.513866
0	C	0.634268	0.533579	0.476889
0	C	0.874159	0.467514	0.973928
0	C	0.477651	0.969059	0.344175
0	C	0.0303374	0.0308579	0.840109
0	C	0.530787	0.469151	0.15066
0	C	0.978259	0.531035	0.646609
0	C	0.410918	0.909319	0.339025
0	C	0.0970096	0.0905628	0.834722
0	C	0.597375	0.409412	0.15596
0	C	0.911616	0.590774	0.651803
0	C	0.480819	0.850102	0.338943
0	C	0.027051	0.149751	0.834503
0	C	0.527312	0.35026	0.156199
0	C	0.981647	0.649939	0.651882
0	C	0.618405	0.849797	0.343573
0	C	0.889509	0.150044	0.839265
0	C	0.389743	0.35	0.151527
0	C	0.1192	0.650174	0.647195
0	C	0.68608	0.909184	0.347825
0	C	0.821892	0.0906868	0.843692
0	C	0.32221	0.409381	0.147099
0	C	0.186781	0.590787	0.642868
0	C	0.616148	0.968267	0.347944
0	C	0.891853	0.0316051	0.843887
0	C	0.392282	0.468433	0.146904
0	C	0.116735	0.531748	0.642766
0	C	0.25836	0.026756	0.357023
0	C	0.249833	0.973469	0.853119
0	C	0.750428	0.52653	0.137746
0	C	0.758841	0.47349	0.633688
0	C	0.232764	0.99207	0.391584
0	C	0.275543	0.00831804	0.887614
0	C	0.77637	0.491731	0.103248
0	C	0.733273	0.508243	0.599147
0	C	0.10324	0.984804	0.405177
0	C	0.405172	0.0156804	0.901124
0	C	0.906028	0.484528	0.0897403
0	C	0.603763	0.515408	0.585515
0	C	0.997491	0.0123625	0.384564
0	C	0.510819	0.988101	0.880468
0	C	0.0115604	0.512169	0.110421
0	C	0.49804	0.48771	0.606071
0	C	0.0221663	0.0470064	0.350257
0	C	0.48597	0.95332	0.846222
0	C	0.986549	0.546845	0.144702
0	C	0.522722	0.453002	0.640353
0	C	0.15192	0.0544192	0.336579
0	C	0.356171	0.9458	0.832631
0	C	0.856695	0.55422	0.158266
0	C	0.652405	0.445705	0.654078
0	C	0.659204	0.213382	0.379821
0	C	0.850063	0.786098	0.876095
0	C	0.349935	0.713735	0.11481
0	C	0.158936	0.286476	0.610926
0	C	0.776469	0.177145	0.383721
0	C	0.732859	0.822388	0.880039
0	C	0.232521	0.677535	0.111085
0	C	0.276118	0.322738	0.60691
0	C	0.863592	0.189959	0.414474
0	C	0.645943	0.809721	0.910846
0	C	0.145199	0.690089	0.0803618
0	C	0.36276	0.310031	0.576037
0	C	0.834084	0.23872	0.441676
0	C	0.675535	0.761006	0.938076
0	C	0.174597	0.738579	0.0529722
0	C	0.332961	0.261287	0.548856
0	C	0.716122	0.274284	0.438301
0	C	0.79308	0.725162	0.934538
0	C	0.292294	0.77437	0.056301
0	C	0.215199	0.225616	0.552387
0	C	0.629205	0.261818	0.407574
0	C	0.879839	0.737478	0.903739
0	C	0.379439	0.76217	0.0870271
0	C	0.128677	0.238002	0.583224
0	C	0.514351	0.268244	0.330324
0	C	0.994769	0.731765	0.826338
0	C	0.494877	0.768293	0.164464
0	C	0.0141406	0.231919	0.660535
0	C	0.379947	0.283315	0.325814
0	C	0.129102	0.716856	0.821483
0	C	0.62917	0.783366	0.169228
0	C	0.879706	0.217046	0.665185
0	C	0.341216	0.342202	0.308283
0	C	0.16761	0.658074	0.803783
0	C	0.667498	0.842188	0.186927
0	C	0.840843	0.158197	0.682731
0	C	0.436559	0.386939	0.295667
0	C	0.072123	0.613308	0.791303
0	C	0.571864	0.886804	0.199496
0	C	0.936089	0.11333	0.695247
0	C	0.571127	0.373179	0.301233
0	C	0.93763	0.627015	0.79704
0	C	0.437408	0.872951	0.193807
0	C	0.0706637	0.126921	0.689589
0	C	0.609933	0.314255	0.31841
0	C	0.899068	0.685814	0.814409
0	C	0.39902	0.814112	0.176459
0	C	0.109599	0.185777	0.672361
0	C	0.96865	0.157448	0.0790862
0	C	0.540682	0.842159	0.575715
0	C	0.040067	0.657885	0.41501
0	C	0.467796	0.342677	0.911792
0	C	0.0640671	0.107567	0.0777312
0	C	0.445469	0.89215	0.574272
0	C	0.94496	0.607869	0.416493
0	C	0.563278	0.39255	0.913116
0	C	0.198156	0.122563	0.0826049
0	C	0.311294	0.877428	0.579205
0	C	0.810787	0.622534	0.41153
0	C	0.697366	0.377533	0.908251
0	C	0.238155	0.187396	0.0883995
0	C	0.270898	0.812707	0.585177
0	C	0.770306	0.687231	0.405495
0	C	0.737349	0.312696	0.902486
0	C	0.143463	0.237365	0.0896799
0	C	0.365303	0.762606	0.586542
0	C	0.864658	0.737359	0.404072
0	C	0.642641	0.262739	0.90123
0	C	0.0092373	0.222495	0.0852832
0	C	0.499637	0.777214	0.582065
0	C	0.998989	0.722801	0.408584
0	C	0.508404	0.277628	0.90561
0	C	0.73805	0.19825	0.0628859
0	C	0.771718	0.801447	0.559596
0	C	0.270863	0.698644	0.431206
0	C	0.237021	0.301846	0.927939
0	C	0.625166	0.221543	0.082064
0	C	0.885747	0.778838	0.578515
0	C	0.384916	0.721265	0.412321
0	C	0.12398	0.278706	0.908775
0	C	0.551559	0.273066	0.065971
0	C	0.959265	0.727191	0.562507
0	C	0.458519	0.772826	0.428389
0	C	0.0502594	0.22718	0.924834
0	C	0.58834	0.300734	0.0303881
0	C	0.921265	0.698613	0.527303
0	C	0.420326	0.801435	0.463567
0	C	0.0869378	0.199437	0.960404
0	C	0.700192	0.277037	0.0108501
0	C	0.807941	0.721458	0.508155
0	C	0.306803	0.778661	0.482644
0	C	0.199027	0.222948	0.979912
0	C	0.774917	0.226456	0.0270968
0	C	0.733619	0.772378	0.524187
0	C	0.232491	0.727776	0.466577
0	C	0.273882	0.273504	0.96369
0	H	0.837614	0.0347377	0.0649942
0	H	0.672823	0.96508	0.56247
0	H	0.171754	0.535001	0.428341
0	H	0.336361	0.465315	0.92595
0	H	0.685996	0.0935572	0.929745
0	H	0.817992	0.907619	0.426341
0	H	0.316952	0.592002	0.564483
0	H	0.184331	0.406128	0.0611418
0	H	0.850877	0.121009	0.937757
0	H	0.652912	0.880989	0.434769
0	H	0.151915	0.618807	0.556177
0	H	0.349404	0.378897	0.0531291
0	H	0.717203	0.156563	0.963984
0	H	0.786715	0.844256	0.460461
0	H	0.285562	0.655758	0.5306
0	H	0.216006	0.343296	0.0268537
0	H	0.762109	0.970815	0.949147
0	H	0.745173	0.0307998	0.44669
0	H	0.244319	0.46926	0.543929
0	H	0.260677	0.5292	0.0418013
0	H	0.925954	0.998801	0.957208
0	H	0.581447	0.0025655	0.454431
0	H	0.0804969	0.497404	0.536316
0	H	0.424477	0.501022	0.033853
0	H	0.836391	0.959542	0.995105
0	H	0.670653	0.0413144	0.492629
0	H	0.169365	0.458909	0.498001
0	H	0.335367	0.540328	0.995891
0	H	0.583756	0.114537	0.0420702
0	H	0.925576	0.885747	0.538603
0	H	0.424708	0.614274	0.45208
0	H	0.0824605	0.385563	0.948825
0	H	0.518365	0.970188	0.142634
0	H	0.991198	0.0303862	0.639043
0	H	0.491588	0.469802	0.351741
0	H	0.0182758	0.52977	0.848165
0	H	0.439666	0.154972	0.135466
0	H	0.0678961	0.845424	0.631544
0	H	0.568623	0.65477	0.359249
0	H	0.939895	0.344915	0.855324
0	H	0.350478	0.216861	0.193237
0	H	0.156526	0.782973	0.689186
0	H	0.657993	0.716961	0.301632
0	H	0.851389	0.283016	0.79749
0	H	0.329976	0.159108	0.257448
0	H	0.178426	0.840406	0.753458
0	H	0.679133	0.659538	0.237334
0	H	0.830575	0.340808	0.733324
0	H	0.412186	0.976207	0.268583
0	H	0.0982294	0.0237129	0.764709
0	H	0.598353	0.476382	0.22611
0	H	0.912312	0.523843	0.722277
0	H	0.58454	0.0780861	0.369444
0	H	0.923738	0.92184	0.865556
0	H	0.424312	0.578247	0.125348
0	H	0.0851528	0.42204	0.62146
0	H	0.200128	0.171545	0.452169
0	H	0.307913	0.829337	0.948614
0	H	0.808776	0.670849	0.0423349
0	H	0.701847	0.328561	0.538384
0	H	0.229652	0.0859423	0.457496
0	H	0.276994	0.914806	0.954109
0	H	0.778247	0.585308	0.0369753
0	H	0.731173	0.414144	0.532929
0	H	0.178561	0.117798	0.412071
0	H	0.329172	0.88335	0.908645
0	H	0.830242	0.61706	0.0824031
0	H	0.679612	0.382497	0.578367
0	H	0.461106	0.212603	0.464865
0	H	0.0460476	0.787809	0.96099
0	H	0.547897	0.712317	0.0297564
0	H	0.962881	0.287732	0.525882
0	H	0.451675	0.133279	0.486458
0	H	0.0549889	0.867128	0.98259
0	H	0.557027	0.632941	0.00821551
0	H	0.953001	0.36695	0.504236
0	H	0.57829	0.151743	0.452418
0	H	0.929144	0.848614	0.948286
0	H	0.43052	0.651626	0.0422873
0	H	0.0797548	0.348762	0.538292
0	H	0.358582	0.162819	0.338585
0	H	0.150266	0.837258	0.834849
0	H	0.650638	0.6629	0.15602
0	H	0.858611	0.337416	0.652087
0	H	0.570738	0.216912	0.265249
0	H	0.938899	0.783617	0.761588
0	H	0.439242	0.716334	0.229332
0	H	0.0708168	0.283242	0.725514
0	H	0.725807	0.0502812	0.28986
0	H	0.784457	0.950477	0.786022
0	H	0.284251	0.549582	0.204737
0	H	0.225374	0.44994	0.700977
0	H	0.838034	0.982618	0.238407
0	H	0.672247	0.017799	0.734395
0	H	0.170576	0.48252	0.256195
0	H	0.336684	0.517804	0.752483
0	H	0.866473	0.0298977	0.17133
0	H	0.642165	0.969671	0.667575
0	H	0.140306	0.530602	0.323
0	H	0.364889	0.470642	0.819584
0	H	0.798653	0.207728	0.149179
0	H	0.709534	0.791574	0.645929
0	H	0.208597	0.708425	0.344787
0	H	0.29746	0.292571	0.841681
0	H	0.746323	0.980183	0.124127
0	H	0.763995	0.0213956	0.620518
0	H	0.263226	0.479145	0.370156
0	H	0.245299	0.520081	0.866899
0	H	0.878487	0.878334	0.128315
0	H	0.630869	0.122987	0.624061
0	H	0.129151	0.377859	0.366546
0	H	0.377362	0.62195	0.862737
0	H	0.864488	0.794074	0.0761585
0	H	0.644716	0.206552	0.571498
0	H	0.141499	0.294377	0.419176
0	H	0.362651	0.706361	0.914802
0	H	0.720474	0.813771	0.0184329
0	H	0.789706	0.186424	0.514049
0	H	0.287259	0.313849	0.476522
0	H	0.218524	0.686644	0.972482
0	H	0.58492	0.915258	0.014255
0	H	0.925892	0.0851371	0.510418
0	H	0.424616	0.414765	0.480201
0	H	0.0831131	0.585148	0.976656
0	H	0.396994	0.919337	0.0897814
0	H	0.111873	0.0822299	0.585383
0	H	0.61092	0.417642	0.405588
0	H	0.896	0.580807	0.901117
0	H	0.169021	0.895793	0.0673913
0	H	0.340655	0.10451	0.563274
0	H	0.839953	0.395588	0.427523
0	H	0.667961	0.604249	0.923547
0	H	0.0699917	0.960711	0.0131155
0	H	0.440162	0.0380354	0.509736
0	H	0.940077	0.462532	0.48075
0	H	0.569155	0.539294	0.977832
0	H	0.203558	0.0467361	0.980254
0	H	0.30718	0.950808	0.477828
0	H	0.807052	0.549631	0.512771
0	H	0.702764	0.453075	0.0105538
0	H	0.431812	0.0707588	0.00205641
0	H	0.0779834	0.927969	0.499401
0	H	0.577526	0.572211	0.491357
0	H	0.931001	0.429259	0.988727
0	H	0.303596	0.908375	0.335203
0	H	0.204311	0.091439	0.830806
0	H	0.704654	0.408443	0.159788
0	H	0.804304	0.591708	0.655627
0	H	0.427508	0.803981	0.335246
0	H	0.0802697	0.195855	0.830578
0	H	0.580449	0.304149	0.160076
0	H	0.928444	0.696073	0.655617
0	H	0.672715	0.80365	0.343735
0	H	0.835196	0.196188	0.839377
0	H	0.335317	0.303902	0.151473
0	H	0.173605	0.696285	0.647056
0	H	0.793515	0.90953	0.350973
0	H	0.714458	0.0903596	0.846916
0	H	0.214779	0.409747	0.143879
0	H	0.294233	0.590418	0.639644
0	H	0.670212	0.0145308	0.351267
0	H	0.83779	0.985345	0.847264
0	H	0.338226	0.514702	0.143542
0	H	0.170818	0.485483	0.639361
0	H	0.315628	0.972068	0.408245
0	H	0.192821	0.0283997	0.904307
0	H	0.693703	0.47155	0.0865845
0	H	0.816049	0.528426	0.582524
0	H	0.0845505	0.958274	0.432223
0	H	0.423936	0.0423238	0.928105
0	H	0.924781	0.457951	0.0627382
0	H	0.585029	0.541953	0.55849
0	H	0.89672	0.00732498	0.395509
0	H	0.61173	0.993233	0.891265
0	H	0.112442	0.507233	0.099572
0	H	0.397291	0.492648	0.59512
0	H	0.94034	0.0687413	0.334017
0	H	0.56764	0.931547	0.829948
0	H	0.0681394	0.568644	0.161001
0	H	0.440988	0.431125	0.656531
0	H	0.168171	0.0824217	0.309964
0	H	0.339877	0.917711	0.806047
0	H	0.840179	0.582223	0.184867
0	H	0.668627	0.417691	0.680684
0	H	0.801658	0.138936	0.362718
0	H	0.707651	0.860535	0.859002
0	H	0.207414	0.639517	0.132214
0	H	0.30151	0.360889	0.627924
0	H	0.954817	0.161663	0.417076
0	H	0.554819	0.838074	0.913454
0	H	0.0539426	0.661803	0.077926
0	H	0.45383	0.338392	0.573327
0	H	0.902444	0.249016	0.465402
0	H	0.607533	0.750964	0.961907
0	H	0.106373	0.748464	0.0291649
0	H	0.400958	0.251068	0.525036
0	H	0.691775	0.311955	0.459652
0	H	0.817267	0.687375	0.955827
0	H	0.316287	0.811996	0.0348948
0	H	0.190663	0.187947	0.531065
0	H	0.536147	0.289032	0.405277
0	H	0.972483	0.70996	0.901335
0	H	0.472138	0.789675	0.0892875
0	H	0.0357536	0.210703	0.585621
0	H	0.303653	0.249591	0.336263
0	H	0.205511	0.75065	0.831784
0	H	0.705668	0.749673	0.158878
0	H	0.803497	0.250869	0.654802
0	H	0.236362	0.352901	0.304556
0	H	0.272412	0.647478	0.799797
0	H	0.772261	0.852918	0.190854
0	H	0.735953	0.147629	0.686549
0	H	0.407173	0.432805	0.281761
0	H	0.101342	0.567441	0.777367
0	H	0.600947	0.932672	0.213474
0	H	0.906599	0.0674724	0.709143
0	H	0.645213	0.408901	0.292066
0	H	0.863437	0.591339	0.787863
0	H	0.363072	0.908508	0.203027
0	H	0.144643	0.0910835	0.698709
0	H	0.714882	0.303783	0.32262
0	H	0.79412	0.696258	0.818728
0	H	0.294139	0.803503	0.172215
0	H	0.214576	0.196069	0.668024
0	H	0.0346847	0.0566949	0.0728034
0	H	0.475152	0.942951	0.569227
0	H	0.974763	0.557098	0.421576
0	H	0.533942	0.443431	0.918011
0	H	0.271849	0.0832972	0.0819281
0	H	0.237816	0.916788	0.578414
0	H	0.737444	0.583116	0.412324
0	H	0.771137	0.416763	0.908932
0	H	0.343048	0.198547	0.0919123
0	H	0.165889	0.801737	0.588632
0	H	0.665264	0.698139	0.402006
0	H	0.842236	0.301535	0.898992
0	H	0.174	0.28799	0.0941643
0	H	0.334339	0.712067	0.591113
0	H	0.833655	0.787876	0.399403
0	H	0.673205	0.212106	0.896796
0	H	0.936432	0.261929	0.0865449
0	H	0.571953	0.737564	0.583406
0	H	0.0714037	0.762407	0.407202
0	H	0.435743	0.238134	0.904339
0	H	0.591606	0.198944	0.109133
0	H	0.920237	0.802062	0.605306
0	H	0.419197	0.698167	0.385477
0	H	0.0903061	0.301437	0.881749
0	H	0.46462	0.29147	0.0812931
0	H	0.0470689	0.709245	0.577609
0	H	0.546475	0.790661	0.413334
0	H	0.963327	0.208805	0.909494
0	H	0.529985	0.34036	0.0175356
0	H	0.979825	0.659008	0.514415
0	H	0.478827	0.841055	0.476459
0	H	0.0282995	0.159937	0.973301
0	H	0.72806	0.29785	0.982732
0	H	0.778311	0.699537	0.480506
0	H	0.277062	0.800608	0.510275
0	H	0.227032	0.201967	0.00797427
0	H	0.862252	0.207581	0.0118643
0	H	0.645515	0.790672	0.509105
0	H	0.144078	0.709643	0.481577
0	H	0.361245	0.29231	0.978938
