#******************************************
#
# CIF file created by Zeo++
# Zeo++ is an open source package to
# analyze microporous materials
#
#*******************************************

_cell_length_a		10.5977(0)
_cell_length_b		12.2079(0)
_cell_length_c		44.6893(0)
_cell_angle_alpha		90(0)
_cell_angle_beta		90(0)
_cell_angle_gamma		90(0)

_symmetry_space_group_name_H-M		'P1'
_symmetry_Int_Tables_number		1
_symmetry_cell_setting		Monoclinic

loop_
_symmetry_equiv_pos_as_xyz
'+x,+y,+z'

loop_
_atom_site_label
_atom_site_type_symbol
_atom_site_fract_x
_atom_site_fract_y
_atom_site_fract_z
0	C	0.733712	0.654822	0.527014
0	C	0.377772	0.298829	0.0206731
0	C	0.378369	0.704064	0.30431
0	C	0.740654	0.264374	0.776348
0	C	0.682323	0.770285	0.530168
0	C	0.430414	0.186036	0.0275469
0	C	0.245985	0.675916	0.314717
0	C	0.879683	0.289617	0.781113
0	H	0.744722	0.821944	0.543856
0	H	0.363238	0.136089	0.0403827
0	H	0.200572	0.746415	0.325725
0	H	0.923772	0.230959	0.796603
0	H	0.587551	0.770819	0.540399
0	H	0.518936	0.191004	0.0405069
0	H	0.246602	0.607652	0.330917
0	H	0.893912	0.372069	0.790199
0	H	0.673912	0.810553	0.508259
0	H	0.451979	0.140813	0.00691918
0	H	0.184711	0.6519	0.296055
0	H	0.932596	0.284449	0.76
0	C	0.653612	0.581013	0.507204
0	C	0.457566	0.363981	0.998602
0	C	0.438018	0.615551	0.284787
0	C	0.677323	0.342206	0.754253
0	H	0.625781	0.623197	0.486478
0	H	0.419756	0.354318	0.975689
0	H	0.381181	0.600946	0.264564
0	H	0.722019	0.337136	0.732073
0	H	0.566701	0.556097	0.518828
0	H	0.555344	0.334414	0.997762
0	H	0.44648	0.537391	0.29678
0	H	0.684101	0.427436	0.761887
0	H	0.705559	0.507324	0.500422
0	H	0.457777	0.451753	0.00346019
0	H	0.532148	0.63981	0.276955
0	H	0.577419	0.321985	0.751008
0	C	0.76815	0.600931	0.556676
0	C	0.340012	0.363885	0.0483555
0	C	0.464248	0.744214	0.329151
0	C	0.667336	0.251002	0.805358
0	H	0.821252	0.524808	0.553272
0	H	0.282839	0.435602	0.0423899
0	H	0.552914	0.777424	0.320203
0	H	0.57121	0.221161	0.80131
0	H	0.684642	0.580695	0.569962
0	H	0.422254	0.393017	0.0608373
0	H	0.487704	0.678376	0.344842
0	H	0.660943	0.328581	0.817574
0	H	0.827665	0.655011	0.570464
0	H	0.282738	0.314136	0.063778
0	H	0.4203	0.81082	0.342102
0	H	0.712775	0.190735	0.82022
0	O	0.851753	0.661595	0.508467
0	O	0.260917	0.283394	0.00202445
0	O	0.368169	0.793164	0.281057
0	O	0.732266	0.159567	0.758963
0	C	0.958001	0.70912	0.519721
0	C	0.152932	0.241797	0.0140147
0	C	0.32211	0.893842	0.288096
0	C	0.776529	0.0631984	0.770126
0	O	0.964246	0.758471	0.543551
0	O	0.144721	0.197124	0.0385036
0	O	0.275358	0.918018	0.312281
0	O	0.822668	0.0500067	0.794913
0	N	0.0583267	0.684712	0.500622
0	N	0.0538704	0.265348	0.994459
0	N	0.344329	0.96552	0.264139
0	N	0.750401	0.980127	0.749107
0	H	0.040634	0.639493	0.481159
0	H	0.0723422	0.30872	0.974851
0	H	0.385181	0.934753	0.244916
0	H	0.707342	0.00293367	0.729029
0	C	0.170658	0.753345	0.49982
0	C	0.939515	0.199065	0.994228
0	C	0.260625	0.058583	0.259442
0	C	0.838787	0.889186	0.74631
0	C	0.169371	0.867575	0.484994
0	C	0.938187	0.0849505	0.979462
0	C	0.138164	0.0475098	0.241279
0	C	0.96529	0.902474	0.729847
0	H	0.237601	0.926557	0.494837
0	H	0.869989	0.0264186	0.989515
0	H	0.058608	0.0991945	0.249143
0	H	0.0441071	0.852577	0.738849
0	C	0.225508	0.770687	0.468305
0	C	0.882264	0.182238	0.96289
0	C	0.251817	0.105013	0.227514
0	C	0.857019	0.842092	0.714682
0	H	0.166244	0.73388	0.450189
0	H	0.940478	0.218635	0.944565
0	H	0.304818	0.0579367	0.210107
0	H	0.806704	0.888035	0.6966
0	C	0.0502301	0.922641	0.476251
0	C	0.0564275	0.0286154	0.970555
0	C	0.0935267	0.939718	0.230034
0	C	0.00787892	0.0124462	0.719813
0	C	0.992745	0.991849	0.49738
0	C	0.125044	0.974281	0.993019
0	C	0.0280053	0.869673	0.249523
0	C	0.0717241	0.0798689	0.740319
0	H	0.0321735	0.998705	0.519798
0	H	0.0944722	0.979888	0.0162462
0	H	0.0161692	0.892116	0.272927
0	H	0.0847819	0.0527958	0.763328
0	C	0.885431	0.051534	0.489622
0	C	0.232031	0.913702	0.985517
0	C	0.977634	0.77165	0.23874
0	C	0.118	0.181457	0.731126
0	H	0.843842	0.107602	0.505856
0	H	0.283226	0.870212	0.0029984
0	H	0.92438	0.718389	0.253777
0	H	0.169953	0.232536	0.746915
0	C	0.832907	0.0409424	0.461046
0	C	0.272326	0.907963	0.955744
0	C	0.99371	0.742146	0.208739
0	C	0.0992415	0.217332	0.701727
0	H	0.750532	0.0891137	0.454833
0	H	0.354388	0.858897	0.949826
0	H	0.953813	0.666061	0.200335
0	H	0.135997	0.296209	0.694529
0	C	0.887856	0.96972	0.440306
0	C	0.205675	0.963887	0.933506
0	C	0.0601898	0.811278	0.189418
0	C	0.0344592	0.150835	0.681445
0	H	0.846761	0.961087	0.418036
0	H	0.236253	0.959	0.910214
0	H	0.0723778	0.78924	0.165908
0	H	0.0204661	0.177596	0.658385
0	C	0.996672	0.910939	0.447771
0	C	0.0976727	0.0242221	0.940828
0	C	0.109846	0.91002	0.19998
0	C	0.988997	0.048435	0.690395
0	H	0.0399326	0.85683	0.43133
0	H	0.0454422	0.0663769	0.923298
0	H	0.159351	0.964588	0.184635
0	H	0.940668	0.996302	0.674258
0	C	0.361141	0.762526	0.460392
0	C	0.745935	0.190613	0.955535
0	C	0.25711	0.224533	0.221381
0	C	0.855994	0.722577	0.708529
0	C	0.445873	0.848854	0.465282
0	C	0.661128	0.10536	0.961658
0	C	0.162184	0.297276	0.230437
0	C	0.955979	0.653429	0.71655
0	H	0.414844	0.922388	0.477011
0	H	0.692777	0.0332762	0.973957
0	H	0.0819307	0.267732	0.243556
0	H	0.0368186	0.686116	0.728794
0	C	0.570058	0.841025	0.454945
0	C	0.536239	0.112033	0.951733
0	C	0.17016	0.408324	0.222991
0	C	0.952187	0.54225	0.709078
0	H	0.635587	0.908623	0.45861
0	H	0.47064	0.0452444	0.956356
0	H	0.094852	0.464197	0.229914
0	H	0.0307011	0.488856	0.715478
0	C	0.610604	0.747165	0.439843
0	C	0.495103	0.203781	0.935785
0	C	0.273229	0.448053	0.206811
0	C	0.84892	0.499013	0.693669
0	H	0.707673	0.74122	0.431962
0	H	0.3977	0.208571	0.928058
0	H	0.279044	0.534596	0.201066
0	H	0.846683	0.412422	0.687809
0	C	0.526647	0.660304	0.4352
0	C	0.578931	0.289873	0.930034
0	C	0.369114	0.376031	0.198073
0	C	0.748233	0.567494	0.685889
0	H	0.558179	0.586951	0.423463
0	H	0.546819	0.36166	0.917678
0	H	0.450197	0.406483	0.185588
0	H	0.667196	0.534212	0.673952
0	C	0.402611	0.667659	0.445498
0	C	0.70363	0.283665	0.939933
0	C	0.361213	0.265028	0.205275
0	C	0.751358	0.678495	0.693323
0	H	0.336835	0.599932	0.441961
0	H	0.769313	0.350588	0.935279
0	H	0.436483	0.208906	0.198577
0	H	0.671987	0.731451	0.687519
0	C	0.249108	0.744128	0.528381
0	C	0.863095	0.21075	0.0230643
0	C	0.256216	0.137139	0.286017
0	C	0.840105	0.814309	0.773659
0	O	0.30131	0.82479	0.539322
0	O	0.810285	0.131851	0.0346599
0	O	0.155031	0.168937	0.29641
0	O	0.939889	0.780563	0.784402
0	N	0.24729	0.642792	0.542174
0	N	0.866315	0.313591	0.0359318
0	N	0.372868	0.166508	0.297015
0	N	0.72265	0.792332	0.785286
0	H	0.217775	0.57471	0.52999
0	H	0.903302	0.378423	0.0238104
0	H	0.452453	0.1435	0.284789
0	H	0.643953	0.816198	0.772787
0	C	0.306746	0.619765	0.571697
0	C	0.807739	0.344159	0.0649707
0	C	0.395036	0.243577	0.322219
0	C	0.695252	0.71874	0.810987
0	C	0.450066	0.626955	0.568922
0	C	0.664205	0.342905	0.0621469
0	C	0.339856	0.356566	0.314973
0	C	0.74084	0.602136	0.804406
0	H	0.486437	0.5654	0.553104
0	H	0.631099	0.406967	0.0468552
0	H	0.393752	0.39851	0.297353
0	H	0.688139	0.565319	0.785809
0	H	0.496011	0.615057	0.590717
0	H	0.6192	0.354697	0.0840553
0	H	0.340616	0.409225	0.334914
0	H	0.729359	0.549322	0.82414
0	H	0.479418	0.708426	0.560465
0	H	0.630426	0.26334	0.0533021
0	H	0.241226	0.350135	0.307331
0	H	0.841534	0.601358	0.798318
0	C	0.263424	0.506618	0.582431
0	C	0.857437	0.457764	0.0737628
0	C	0.536862	0.247065	0.328123
0	C	0.553301	0.724725	0.816679
0	H	0.160087	0.499181	0.583313
0	H	0.959942	0.458286	0.0774585
0	H	0.575138	0.164795	0.332766
0	H	0.522438	0.80895	0.821734
0	H	0.299345	0.489124	0.604999
0	H	0.812569	0.487016	0.094384
0	H	0.558345	0.29908	0.347536
0	H	0.525826	0.672847	0.835692
0	H	0.297871	0.440569	0.567698
0	H	0.838696	0.51887	0.056202
0	H	0.590191	0.279726	0.308969
0	H	0.498493	0.697744	0.797068
0	C	0.262006	0.70502	0.595664
0	C	0.847562	0.263189	0.0903869
0	C	0.33215	0.203597	0.352015
0	C	0.760996	0.758899	0.840306
0	O	0.333602	0.735706	0.615638
0	O	0.773775	0.238899	0.110526
0	O	0.30881	0.270919	0.371761
0	O	0.783218	0.69327	0.860502
0	N	0.137922	0.739552	0.594018
0	N	0.970989	0.225976	0.0899529
0	N	0.307773	0.0930169	0.355962
0	N	0.789442	0.869308	0.843313
0	H	0.0845695	0.72457	0.57491
0	H	0.0261149	0.235212	0.0708515
0	H	0.319338	0.0386897	0.338264
0	H	0.777227	0.922738	0.825512
0	C	0.0794052	0.814405	0.616478
0	C	0.0270721	0.159049	0.114518
0	C	0.225762	0.0531766	0.381028
0	C	0.872187	0.909688	0.868155
0	C	0.0720144	0.756291	0.646731
0	C	0.0352982	0.227887	0.143058
0	C	0.300115	0.0505651	0.410278
0	C	0.797793	0.915304	0.89737
0	H	0.0081829	0.685686	0.645964
0	H	0.0994497	0.297499	0.140345
0	H	0.376876	0.990429	0.4094
0	H	0.722417	0.976633	0.896274
0	H	0.0379131	0.811854	0.664342
0	H	0.0689297	0.178527	0.162037
0	H	0.238157	0.028951	0.429148
0	H	0.859905	0.936212	0.916257
0	H	0.165292	0.726375	0.653876
0	H	0.94207	0.260166	0.149428
0	H	0.34158	0.131125	0.415317
0	H	0.754373	0.835737	0.902685
0	C	0.948954	0.84848	0.605191
0	C	0.15641	0.117728	0.104369
0	C	0.172259	0.940391	0.373165
0	C	0.926986	0.021047	0.859369
0	H	0.951493	0.881399	0.582226
0	H	0.153683	0.0792977	0.0820643
0	H	0.132443	0.937033	0.350396
0	H	0.966872	0.0215507	0.836594
0	H	0.906322	0.911697	0.619586
0	H	0.194694	0.0569693	0.120121
0	H	0.0967724	0.91692	0.388749
0	H	0.00247305	0.0461965	0.874722
0	H	0.883859	0.778513	0.604646
0	H	0.225367	0.184619	0.102835
0	H	0.244988	0.876445	0.374107
0	H	0.854627	0.0854644	0.859704
0	C	0.1601	0.921105	0.62013
0	C	0.942789	0.0564748	0.121328
0	C	0.11043	0.132877	0.384851
0	C	0.985476	0.828219	0.872647
0	O	0.178606	0.963807	0.644354
0	O	0.923459	0.0241511	0.146745
0	O	0.0691079	0.160377	0.4092
0	O	0.0273704	0.804186	0.897232
0	N	0.205266	0.967403	0.593557
0	N	0.89582	0.00198629	0.0962192
0	N	0.0575727	0.168263	0.358007
0	N	0.0358861	0.786329	0.846265
0	H	0.203281	0.923742	0.573771
0	H	0.900159	0.0381505	0.0753385
0	H	0.0958582	0.144602	0.33759
0	H	0.99795	0.806647	0.825559
0	C	0.285335	0.0637648	0.593323
0	C	0.815405	0.906065	0.097959
0	C	0.950459	0.24104	0.355453
0	C	0.142615	0.712718	0.844667
0	C	0.231434	0.181538	0.591944
0	C	0.868644	0.787801	0.097649
0	C	0.817	0.195186	0.349747
0	C	0.276946	0.758087	0.839856
0	H	0.29187	0.241676	0.603973
0	H	0.80773	0.72968	0.110323
0	H	0.741231	0.244992	0.360133
0	H	0.351635	0.707893	0.850612
0	C	0.287487	0.129221	0.563947
0	C	0.811481	0.836394	0.0693073
0	C	0.891096	0.246851	0.324027
0	C	0.205864	0.706514	0.813687
0	H	0.219584	0.103973	0.546454
0	H	0.87905	0.859483	0.0514618
0	H	0.93142	0.188233	0.307468
0	H	0.167798	0.764747	0.796762
0	C	0.0953011	0.209409	0.594045
0	C	0.00424454	0.758389	0.0999676
0	C	0.790116	0.0756761	0.350746
0	C	0.304254	0.877456	0.841293
0	C	0.00163856	0.150825	0.578645
0	C	0.0996264	0.814987	0.0846239
0	C	0.848487	0.00138674	0.331168
0	C	0.25464	0.951967	0.820483
0	H	0.0271205	0.0807614	0.564863
0	H	0.0760383	0.884409	0.0704372
0	H	0.914376	0.031001	0.314265
0	H	0.194063	0.922906	0.802451
0	C	0.874894	0.181108	0.581091
0	C	0.225748	0.783122	0.0875291
0	C	0.822756	0.889346	0.333145
0	C	0.282448	0.0636303	0.822712
0	H	0.802725	0.135025	0.569055
0	H	0.299352	0.8276	0.0755384
0	H	0.868897	0.83251	0.317865
0	H	0.2431	0.120746	0.806473
0	C	0.839885	0.270074	0.59893
0	C	0.258226	0.694384	0.105714
0	C	0.738105	0.850304	0.354614
0	C	0.360221	0.102053	0.845678
0	H	0.740708	0.292256	0.601059
0	H	0.356795	0.670719	0.10813
0	H	0.719412	0.762895	0.356428
0	H	0.381381	0.189044	0.847479
0	C	0.932629	0.32934	0.614211
0	C	0.163703	0.636943	0.120908
0	C	0.677543	0.923982	0.373816
0	C	0.410544	0.0281926	0.866432
0	H	0.905872	0.398936	0.628107
0	H	0.188537	0.567532	0.135067
0	H	0.609716	0.893912	0.390251
0	H	0.471573	0.0578651	0.884348
0	C	0.0594297	0.299384	0.611813
0	C	0.0376235	0.668474	0.118058
0	C	0.70342	0.0359658	0.37199
0	C	0.383021	0.91659	0.864287
0	H	0.130701	0.345628	0.624013
0	H	0.964889	0.623308	0.130072
0	H	0.656323	0.0925841	0.387178
0	H	0.422666	0.859671	0.880551
0	C	0.41042	0.161029	0.550581
0	C	0.689041	0.801724	0.0562544
0	C	0.863696	0.354205	0.309876
0	C	0.234823	0.598857	0.799868
0	C	0.462556	0.265447	0.554414
0	C	0.634302	0.700208	0.0628948
0	C	0.77759	0.42985	0.321703
0	C	0.329412	0.528674	0.810465
0	H	0.412117	0.327309	0.567391
0	H	0.679663	0.645372	0.0788266
0	H	0.728269	0.411736	0.342605
0	H	0.383147	0.550607	0.830449
0	C	0.579923	0.290019	0.54175
0	C	0.52031	0.670229	0.0494263
0	C	0.757996	0.530292	0.307399
0	C	0.3524	0.42896	0.796054
0	H	0.621869	0.370471	0.545266
0	H	0.477455	0.591539	0.054747
0	H	0.690133	0.588222	0.316607
0	H	0.42713	0.375464	0.804187
0	C	0.64355	0.21142	0.524766
0	C	0.461151	0.741275	0.0293373
0	C	0.825853	0.556732	0.281592
0	C	0.279467	0.397702	0.771463
0	H	0.734856	0.230619	0.51482
0	H	0.372534	0.717625	0.0188363
0	H	0.812649	0.635914	0.27064
0	H	0.29619	0.319431	0.760357
0	C	0.590542	0.107449	0.520601
0	C	0.515594	0.843056	0.0228282
0	C	0.912998	0.482069	0.269901
0	C	0.183027	0.466441	0.761239
0	H	0.639899	0.0460707	0.507291
0	H	0.469246	0.89878	0.00722016
0	H	0.967639	0.502636	0.249879
0	H	0.124463	0.44191	0.7422
0	C	0.474671	0.0817288	0.533576
0	C	0.628933	0.873773	0.0362608
0	C	0.931494	0.3811	0.283812
0	C	0.160794	0.566627	0.77525
0	H	0.434228	0.999863	0.530911
0	H	0.670679	0.953895	0.03152
0	H	0.000331655	0.322946	0.274679
0	H	0.0845555	0.620055	0.767455
0	C	0.408204	0.0556905	0.611641
0	C	0.695187	0.91716	0.117038
0	C	0.954528	0.346306	0.374063
0	C	0.136267	0.608085	0.863495
0	O	0.453713	0.136584	0.623498
0	O	0.649176	0.836939	0.129217
0	O	0.859051	0.383035	0.385685
0	O	0.231604	0.56947	0.874747
0	N	0.464189	0.952798	0.61287
0	N	0.642191	0.0209256	0.11919
0	N	0.0704785	0.399145	0.375071
0	N	0.0188723	0.558218	0.865646
0	H	0.41967	0.886201	0.603378
0	H	0.686035	0.0876988	0.109499
0	H	0.150391	0.359957	0.367025
0	H	0.93949	0.597922	0.857579
0	C	0.58131	0.927636	0.630015
0	C	0.527002	0.0459341	0.137105
0	C	0.093537	0.502315	0.391976
0	C	0.995643	0.456949	0.883425
0	C	0.622588	0.811011	0.621739
0	C	0.490069	0.165273	0.130766
0	C	0.229818	0.537953	0.385681
0	C	0.856788	0.425001	0.879211
0	H	0.702407	0.783876	0.635502
0	H	0.411121	0.191431	0.144958
0	H	0.254999	0.611183	0.398651
0	H	0.831588	0.355038	0.893502
0	H	0.652195	0.806131	0.598232
0	H	0.460985	0.17635	0.107395
0	H	0.24323	0.558818	0.36184
0	H	0.837099	0.400743	0.856048
0	H	0.545403	0.751136	0.62482
0	H	0.569355	0.222216	0.134681
0	H	0.298438	0.473134	0.391213
0	H	0.792248	0.492804	0.884797
0	C	0.683438	0.0125516	0.623399
0	C	0.420993	0.965668	0.129562
0	C	0.996846	0.589609	0.383244
0	C	0.0859472	0.36607	0.873608
0	H	0.656258	0.0940283	0.632136
0	H	0.447514	0.880889	0.135646
0	H	0.899908	0.560773	0.387806
0	H	0.185109	0.391191	0.876893
0	H	0.698874	0.0222674	0.599302
0	H	0.399511	0.965462	0.105601
0	H	0.00181423	0.609487	0.359381
0	H	0.0745551	0.346371	0.849849
0	H	0.773715	0.991112	0.633992
0	H	0.334451	0.984682	0.142049
0	H	0.0102339	0.665097	0.396188
0	H	0.0717544	0.291172	0.886742
0	C	0.556376	0.927382	0.664724
0	C	0.55305	0.0381961	0.171697
0	C	0.0855976	0.485683	0.426771
0	C	0.0141515	0.475941	0.917965
0	O	0.638711	0.956509	0.682331
0	O	0.468885	0.0126422	0.189198
0	O	0.0763012	0.566516	0.443107
0	O	0.0303	0.397332	0.934732
0	N	0.442775	0.883175	0.674329
0	N	0.670596	0.0731977	0.181585
0	N	0.0993723	0.38094	0.437857
0	N	6.0619e-05	0.58184	0.928523
0	H	0.376296	0.858662	0.658736
0	H	0.742137	0.0862531	0.166221
0	H	0.104613	0.314004	0.423554
0	H	0.990926	0.647212	0.913781
0	C	0.396876	0.884584	0.705769
0	C	0.714912	0.0658609	0.21313
0	C	0.108155	0.352768	0.470158
0	C	0.0121172	0.614676	0.960442
0	C	0.254024	0.868074	0.705999
0	C	0.856009	0.0920655	0.213605
0	C	0.11717	0.228324	0.473401
0	C	0.000221766	0.739113	0.962736
0	H	0.206509	0.930395	0.691818
0	H	0.90879	0.0358728	0.198646
0	H	0.0405163	0.18625	0.461086
0	H	0.067759	0.781162	0.947636
0	H	0.215153	0.876676	0.728634
0	H	0.896242	0.0831546	0.236104
0	H	0.111298	0.202368	0.496798
0	H	0.0192663	0.768805	0.985425
0	H	0.225829	0.787492	0.697358
0	H	0.876306	0.175619	0.205765
0	H	0.205177	0.195348	0.463911
0	H	0.906089	0.768557	0.956109
0	C	0.43284	0.988637	0.722744
0	C	0.68676	0.954643	0.227346
0	C	0.998184	0.399437	0.488188
0	C	0.134753	0.573374	0.974519
0	H	0.535052	0.00552516	0.721642
0	H	0.585529	0.93447	0.226034
0	H	0.988902	0.48883	0.485237
0	H	0.14235	0.483281	0.973101
0	H	0.408098	0.983076	0.746529
0	H	0.713193	0.952306	0.251053
0	H	0.00936356	0.384084	0.512216
0	H	0.141025	0.595088	0.99828
0	H	0.384494	0.0604541	0.713287
0	H	0.738463	0.888782	0.215883
0	H	0.908558	0.363052	0.480922
0	H	0.21716	0.608027	0.962969
0	C	0.456815	0.783968	0.721974
0	C	0.645818	0.155895	0.231816
0	C	0.234632	0.402295	0.481789
0	C	0.898629	0.561515	0.97738
0	O	0.530157	0.783267	0.742723
0	O	0.571916	0.143996	0.252207
0	O	0.251906	0.46684	0.501938
0	O	0.901766	0.488709	0.995795
0	O	0.412337	0.688114	0.71005
0	O	0.685388	0.25766	0.222978
0	O	0.33324	0.360691	0.465652
0	O	0.787586	0.607081	0.968327
0	C	0.453919	0.58672	0.724042
0	C	0.638512	0.351396	0.239681
0	C	0.458911	0.398697	0.473535
0	C	0.673162	0.564372	0.981922
0	H	0.555457	0.589488	0.728606
0	H	0.539358	0.339856	0.245767
0	H	0.461086	0.488399	0.473509
0	H	0.678735	0.475088	0.984019
0	H	0.430264	0.524895	0.707213
0	H	0.650896	0.419042	0.223879
0	H	0.51771	0.363933	0.455757
0	H	0.599642	0.588857	0.966118
0	H	0.399851	0.575426	0.744722
0	H	0.697765	0.361356	0.259582
0	H	0.483524	0.365981	0.495583
0	H	0.661544	0.603998	0.00373853
