#******************************************
#
# CIF file created by Zeo++
# Zeo++ is an open source package to
# analyze microporous materials
#
#*******************************************

_cell_length_a		10.512(0)
_cell_length_b		13.4495(0)
_cell_length_c		34.3512(0)
_cell_angle_alpha		90(0)
_cell_angle_beta		90(0)
_cell_angle_gamma		90(0)

_symmetry_space_group_name_H-M		'P1'
_symmetry_Int_Tables_number		1
_symmetry_cell_setting		Monoclinic

loop_
_symmetry_equiv_pos_as_xyz
'+x,+y,+z'

loop_
_atom_site_label
_atom_site_type_symbol
_atom_site_fract_x
_atom_site_fract_y
_atom_site_fract_z
0	C	0.931831	0.390538	0.13158
0	C	0.152589	0.648258	0.130624
0	C	0.15246	0.393422	0.885186
0	C	0.93176	0.646533	0.885264
0	C	0.43385	0.895965	0.645634
0	C	0.649948	0.142755	0.645935
0	C	0.650696	0.89441	0.369589
0	C	0.433549	0.144391	0.370312
0	H	0.0309733	0.421831	0.133206
0	H	0.0531864	0.617435	0.132056
0	H	0.0544695	0.427005	0.884329
0	H	0.0301345	0.613625	0.884616
0	H	0.531915	0.928685	0.649006
0	H	0.551597	0.110589	0.649202
0	H	0.552717	0.927734	0.367157
0	H	0.531651	0.11134	0.367792
0	C	0.929404	0.286953	0.112258
0	C	0.156533	0.751697	0.111207
0	C	0.151516	0.288576	0.903441
0	C	0.931545	0.751653	0.903324
0	C	0.437462	0.796865	0.623052
0	C	0.647557	0.241994	0.6234
0	C	0.648083	0.792745	0.390368
0	C	0.435846	0.245793	0.391298
0	H	0.844034	0.243984	0.122604
0	H	0.242103	0.79421	0.121639
0	H	0.235931	0.244701	0.893045
0	H	0.847067	0.795089	0.892653
0	H	0.350335	0.751384	0.629504
0	H	0.734636	0.287237	0.630237
0	H	0.734304	0.747869	0.38231
0	H	0.349525	0.290666	0.383373
0	C	0.932093	0.293235	0.0685371
0	C	0.154487	0.74501	0.067493
0	C	0.146886	0.293277	0.947202
0	C	0.93527	0.747692	0.947105
0	C	0.452342	0.814509	0.580003
0	C	0.634621	0.224931	0.580265
0	C	0.637394	0.804896	0.433817
0	C	0.446946	0.233038	0.434705
0	H	0.963715	0.224921	0.054312
0	H	0.123894	0.813463	0.0531572
0	H	0.108811	0.22609	0.960868
0	H	0.972071	0.815393	0.96071
0	H	0.495492	0.752232	0.564272
0	H	0.59382	0.287907	0.564404
0	H	0.59588	0.740613	0.448644
0	H	0.488258	0.297214	0.449648
0	C	0.899514	0.374585	0.0487532
0	C	0.18615	0.663187	0.0478505
0	C	0.184188	0.372265	0.967672
0	C	0.898755	0.668632	0.967679
0	C	0.417333	0.898692	0.562539
0	C	0.66897	0.140533	0.562817
0	C	0.673924	0.886764	0.452597
0	C	0.410981	0.15071	0.453317
0	H	0.89738	0.375593	0.0170067
0	H	0.187621	0.661729	0.0160995
0	H	0.182736	0.372415	0.999567
0	H	0.900031	0.66875	0.999561
0	H	0.425404	0.908733	0.531026
0	H	0.662625	0.131021	0.531243
0	H	0.669074	0.89277	0.484305
0	H	0.416074	0.144281	0.485
0	C	0.861671	0.471127	0.0676338
0	C	0.222894	0.566664	0.0669304
0	C	0.230274	0.467679	0.949903
0	C	0.854156	0.5727	0.950015
0	C	0.364369	0.987728	0.583392
0	C	0.718474	0.0505344	0.583813
0	C	0.724466	0.978614	0.433063
0	C	0.360986	0.0589724	0.433583
0	H	0.936522	0.529108	0.0627731
0	H	0.147398	0.509111	0.0620636
0	H	0.163292	0.53077	0.956057
0	H	0.92206	0.510223	0.956262
0	H	0.42951	0.0536779	0.58058
0	H	0.650777	0.986137	0.581209
0	H	0.659336	0.0438176	0.437607
0	H	0.426934	0.994103	0.437789
0	C	0.836571	0.463057	0.112288
0	C	0.247392	0.575102	0.111587
0	C	0.251245	0.462301	0.904851
0	C	0.833359	0.577414	0.904957
0	C	0.338418	0.970205	0.627693
0	C	0.745141	0.0682622	0.628044
0	C	0.747142	0.966657	0.388326
0	C	0.337484	0.0715979	0.388915
0	C	0.699402	0.43283	0.122003
0	C	0.384746	0.604445	0.121446
0	C	0.38661	0.430157	0.89361
0	C	0.697853	0.608855	0.893562
0	C	0.201127	0.937106	0.635875
0	C	0.882378	0.101976	0.635972
0	C	0.883958	0.934471	0.378983
0	C	0.200446	0.103462	0.379719
0	H	0.632541	0.495491	0.115188
0	H	0.450653	0.540819	0.115041
0	H	0.455754	0.491318	0.900037
0	H	0.629165	0.547312	0.899866
0	H	0.134178	0.000393017	0.630384
0	H	0.949843	0.0391494	0.630348
0	H	0.951072	0.997575	0.384638
0	H	0.133691	0.0400041	0.38516
0	H	0.666616	0.371919	0.10239
0	H	0.419208	0.664359	0.101638
0	H	0.418911	0.365337	0.911252
0	H	0.664927	0.673462	0.911194
0	H	0.170538	0.877271	0.615532
0	H	0.911934	0.162205	0.615644
0	H	0.915841	0.873116	0.398446
0	H	0.168073	0.164205	0.3994
0	C	0.688386	0.401931	0.163785
0	C	0.395348	0.636131	0.16314
0	C	0.393678	0.403128	0.851274
0	C	0.690952	0.635778	0.851209
0	C	0.18855	0.901289	0.677031
0	C	0.895188	0.137606	0.677142
0	C	0.894855	0.90145	0.337445
0	C	0.189379	0.137204	0.338277
0	C	0.555548	0.402255	0.180647
0	C	0.528306	0.635824	0.179916
0	C	0.525902	0.403223	0.834024
0	C	0.558801	0.635473	0.833881
0	C	0.0549238	0.900458	0.693239
0	C	0.0287981	0.138304	0.693319
0	C	0.0281925	0.900993	0.321059
0	C	0.056118	0.13744	0.321832
0	C	0.434887	0.396303	0.243765
0	C	0.64929	0.641428	0.242979
0	C	0.645965	0.395601	0.770943
0	C	0.438739	0.643131	0.770768
0	C	0.932062	0.895449	0.755993
0	C	0.15145	0.143144	0.756079
0	C	0.150662	0.895094	0.258428
0	C	0.934025	0.142366	0.259134
0	C	0.459953	0.389473	0.28586
0	C	0.623975	0.648753	0.285073
0	C	0.620037	0.389654	0.72887
0	C	0.464595	0.649482	0.728685
0	C	0.957287	0.887764	0.798077
0	C	0.126108	0.151189	0.798152
0	C	0.125541	0.890104	0.216297
0	C	0.959089	0.147795	0.21701
0	C	0.313422	0.404157	0.23025
0	C	0.770772	0.63324	0.229516
0	C	0.767669	0.402554	0.784338
0	C	0.317019	0.635943	0.784114
0	C	0.810715	0.903324	0.742395
0	C	0.272762	0.134969	0.742491
0	C	0.271916	0.901669	0.272197
0	C	0.812789	0.135505	0.272912
0	H	0.292791	0.412555	0.198933
0	H	0.791608	0.624328	0.198226
0	H	0.788723	0.409448	0.815641
0	H	0.295855	0.628796	0.815389
0	H	0.790086	0.912492	0.711077
0	H	0.293452	0.125621	0.711194
0	H	0.292256	0.908435	0.303569
0	H	0.792514	0.12834	0.304285
0	C	0.208661	0.400961	0.25737
0	C	0.875426	0.636752	0.256682
0	C	0.872009	0.400174	0.757088
0	C	0.212702	0.638292	0.756858
0	C	0.706024	0.89959	0.769527
0	C	0.377348	0.13871	0.769654
0	C	0.376681	0.899217	0.245115
0	C	0.707978	0.138159	0.245861
0	C	0.0796283	0.400397	0.245631
0	C	0.00451532	0.637026	0.244996
0	C	0.00132248	0.399605	0.768597
0	C	0.0834838	0.638572	0.768448
0	C	0.576901	0.900252	0.75788
0	C	0.506453	0.137724	0.757999
0	C	0.505698	0.898473	0.256865
0	C	0.57901	0.138599	0.25765
0	H	0.0565757	0.405075	0.214462
0	H	0.0277134	0.631989	0.213845
0	H	0.0248986	0.403784	0.799718
0	H	0.0600788	0.634273	0.799581
0	H	0.553908	0.90586	0.726743
0	H	0.529495	0.131804	0.726875
0	H	0.528446	0.902876	0.288024
0	H	0.556405	0.133851	0.288817
0	C	0.982252	0.393785	0.272686
0	C	0.101745	0.643832	0.272091
0	C	0.0981403	0.39358	0.741351
0	C	0.986533	0.644481	0.741253
0	C	0.479545	0.893735	0.784941
0	C	0.603752	0.144328	0.785063
0	C	0.603113	0.891943	0.229846
0	C	0.481478	0.145257	0.230671
0	H	0.883766	0.393522	0.262604
0	H	0.200297	0.643841	0.262059
0	H	0.196847	0.393725	0.751183
0	H	0.887881	0.64418	0.751146
0	H	0.381028	0.894213	0.7749
0	H	0.702266	0.143565	0.775028
0	H	0.701573	0.891406	0.239934
0	H	0.383077	0.145542	0.240789
0	C	0.0097793	0.388601	0.312925
0	C	0.0740497	0.649555	0.312309
0	C	0.069879	0.388473	0.701132
0	C	0.0145747	0.649618	0.70102
0	C	0.507156	0.887563	0.825162
0	C	0.576096	0.150934	0.825268
0	C	0.575676	0.887021	0.1896
0	C	0.50886	0.150652	0.190418
0	C	0.13794	0.388962	0.325968
0	C	0.945835	0.649611	0.325291
0	C	0.941384	0.388468	0.688351
0	C	0.142965	0.6496	0.688131
0	C	0.635431	0.886782	0.83812
0	C	0.44787	0.151927	0.838236
0	C	0.447534	0.888562	0.17651
0	C	0.636971	0.149598	0.177299
0	C	0.234166	0.396048	0.297704
0	C	0.84976	0.642274	0.296995
0	C	0.845743	0.395798	0.71678
0	C	0.238809	0.64276	0.716536
0	C	0.731523	0.893543	0.809841
0	C	0.351791	0.145118	0.809955
0	C	0.351322	0.895219	0.204747
0	C	0.733283	0.142705	0.205496
0	C	0.78938	0.372474	0.331994
0	C	0.294442	0.665359	0.331342
0	C	0.28982	0.371755	0.681545
0	C	0.794397	0.666395	0.681893
0	C	0.286831	0.872674	0.844532
0	C	0.796565	0.165473	0.844275
0	C	0.7958	0.869206	0.170587
0	C	0.288718	0.168516	0.171339
0	H	0.754347	0.443672	0.320847
0	H	0.329255	0.593737	0.320529
0	H	0.325903	0.442375	0.692951
0	H	0.758662	0.595655	0.69329
0	H	0.252249	0.944173	0.83361
0	H	0.830481	0.0936103	0.833506
0	H	0.831395	0.940185	0.181765
0	H	0.252754	0.0972994	0.182171
0	H	0.746829	0.354387	0.3605
0	H	0.337062	0.684272	0.359758
0	H	0.331431	0.354302	0.652832
0	H	0.751997	0.684127	0.653322
0	H	0.244897	0.854363	0.873127
0	H	0.839323	0.184249	0.872701
0	H	0.838278	0.850896	0.142089
0	H	0.246648	0.187689	0.142872
0	H	0.773404	0.311708	0.311439
0	H	0.310571	0.725438	0.310474
0	H	0.30567	0.310184	0.701738
0	H	0.77919	0.727798	0.702216
0	H	0.269877	0.812265	0.823866
0	H	0.813404	0.225359	0.823355
0	H	0.810932	0.808203	0.191116
0	H	0.273512	0.228965	0.192103
0	C	0.212434	0.461281	0.384984
0	C	0.871752	0.578221	0.384547
0	C	0.869191	0.460271	0.628976
0	C	0.21614	0.577976	0.628786
0	C	0.706424	0.960016	0.897331
0	C	0.375399	0.0794048	0.897442
0	C	0.373606	0.963291	0.117905
0	C	0.710918	0.076201	0.118434
0	H	0.310296	0.474933	0.375441
0	H	0.773948	0.563973	0.37508
0	H	0.771614	0.476275	0.638216
0	H	0.313643	0.5627	0.638274
0	H	0.804172	0.975981	0.88825
0	H	0.277362	0.0644257	0.888377
0	H	0.276045	0.977729	0.127591
0	H	0.808246	0.0613472	0.128232
0	H	0.20794	0.438672	0.415526
0	H	0.876192	0.601475	0.415021
0	H	0.873583	0.436517	0.59854
0	H	0.212369	0.601796	0.598345
0	H	0.701197	0.936984	0.92786
0	H	0.381059	0.102392	0.92797
0	H	0.37723	0.941051	0.0872729
0	H	0.707913	0.0992889	0.0878967
0	H	0.151655	0.52613	0.37954
0	H	0.932881	0.513474	0.379304
0	H	0.932214	0.523847	0.634241
0	H	0.15377	0.513871	0.633807
0	H	0.64376	0.0236359	0.891647
0	H	0.436987	0.0151514	0.891754
0	H	0.435374	0.0275199	0.123479
0	H	0.648887	0.0119082	0.12362
0	N	0.784071	0.377499	0.185979
0	N	0.299607	0.660853	0.185214
0	N	0.295655	0.382305	0.829529
0	N	0.789048	0.656621	0.829485
0	N	0.283344	0.873513	0.698908
0	N	0.800523	0.165112	0.69915
0	N	0.799103	0.876074	0.315528
0	N	0.284976	0.163188	0.31637
0	N	0.548756	0.393382	0.221219
0	N	0.535343	0.644294	0.220483
0	N	0.532333	0.392418	0.793669
0	N	0.552357	0.646148	0.793519
0	N	0.0466545	0.893973	0.733758
0	N	0.0369522	0.144687	0.733834
0	N	0.0361678	0.89219	0.280686
0	N	0.0484772	0.145172	0.281409
0	H	0.630258	0.379822	0.237162
0	H	0.453937	0.657836	0.236464
0	H	0.450751	0.378268	0.777829
0	H	0.633977	0.660075	0.777673
0	H	0.127771	0.881124	0.750024
0	H	0.955782	0.157592	0.750082
0	H	0.955195	0.878317	0.264474
0	H	0.129566	0.158731	0.265209
0	O	0.904408	0.376853	0.17329
0	O	0.179336	0.661694	0.172395
0	O	0.176622	0.3825	0.84312
0	O	0.907999	0.656721	0.843159
0	O	0.403917	0.873701	0.686598
0	O	0.679841	0.164778	0.686922
0	O	0.678936	0.876512	0.328175
0	O	0.405175	0.162813	0.328953
0	O	0.0425606	0.233425	0.122561
0	O	0.0438252	0.806077	0.121259
0	O	0.0374109	0.237862	0.892241
0	O	0.0456067	0.802603	0.892235
0	O	0.547821	0.741171	0.634255
0	O	0.537066	0.297811	0.634364
0	O	0.536334	0.739082	0.379052
0	O	0.547381	0.299895	0.380038
0	H	0.0321339	0.203386	0.149041
0	H	0.0536989	0.835518	0.147837
0	H	0.0481933	0.208623	0.865603
0	H	0.0350987	0.831489	0.865506
0	H	0.534016	0.71089	0.660563
0	H	0.550375	0.327953	0.660728
0	H	0.548994	0.709116	0.352569
0	H	0.534657	0.329833	0.35356
0	O	0.745335	0.507178	0.0510019
0	O	0.339235	0.529306	0.0508333
0	O	0.34427	0.500055	0.969243
0	O	0.740633	0.53926	0.969383
0	O	0.25098	0.0224091	0.564796
0	O	0.830256	0.0126622	0.565285
0	O	0.838519	0.0112675	0.451952
0	O	0.247693	0.0251074	0.452556
0	H	0.751375	0.508445	0.0218814
0	H	0.335534	0.529461	0.0216845
0	H	0.408023	0.446554	0.970421
0	H	0.676034	0.592233	0.970628
0	H	0.199034	0.967062	0.555124
0	H	0.885111	0.0664868	0.555812
0	H	0.897412	0.955699	0.456273
0	H	0.188448	0.0802045	0.457302
0	O	0.86849	0.557919	0.128713
0	O	0.214662	0.480406	0.128042
0	O	0.220562	0.559248	0.890396
0	O	0.86463	0.480371	0.89071
0	O	0.367101	0.0620199	0.647161
0	O	0.717254	0.97659	0.647656
0	O	0.716793	0.0606251	0.370946
0	O	0.368003	0.977948	0.3713
0	H	0.792611	0.60257	0.129547
0	H	0.290187	0.435406	0.128629
0	H	0.298381	0.599224	0.884796
0	H	0.787076	0.439584	0.885785
0	H	0.293152	0.108699	0.646033
0	H	0.790248	0.929184	0.645515
0	H	0.792589	0.105351	0.37009
0	H	0.291978	0.933555	0.369962
0	O	0.460604	0.41435	0.160748
0	O	0.622921	0.62377	0.159911
0	O	0.620703	0.416791	0.85397
0	O	0.464002	0.621877	0.853817
0	O	0.961195	0.9104	0.672625
0	O	0.122507	0.128183	0.672695
0	O	0.121909	0.91291	0.341609
0	O	0.962343	0.125928	0.342333
0	O	0.56188	0.380052	0.302352
0	O	0.522065	0.658261	0.301439
0	O	0.517883	0.380695	0.712579
0	O	0.566609	0.658826	0.712408
0	O	0.0594716	0.87915	0.814365
0	O	0.0238773	0.160152	0.814371
0	O	0.0233057	0.882644	0.199883
0	O	0.0612965	0.155359	0.200618
0	O	0.357699	0.397141	0.311797
0	O	0.726147	0.641545	0.311049
0	O	0.722051	0.397513	0.702869
0	O	0.362573	0.64154	0.70267
0	O	0.854975	0.893467	0.824018
0	O	0.228312	0.145532	0.824121
0	O	0.228008	0.897196	0.190492
0	O	0.856578	0.141067	0.191212
0	O	0.923417	0.381316	0.342112
0	O	0.160371	0.657019	0.341501
0	O	0.155567	0.381739	0.671793
0	O	0.928425	0.65644	0.671804
0	O	0.421151	0.880704	0.854412
0	O	0.662381	0.158121	0.854433
0	O	0.661878	0.879155	0.160439
0	O	0.422685	0.158534	0.161267
0	O	0.163527	0.373603	0.364974
0	O	0.920019	0.66567	0.364239
0	O	0.914471	0.372177	0.649521
0	O	0.169069	0.665625	0.649231
0	O	0.661777	0.87128	0.87705
0	O	0.421535	0.167685	0.877155
0	O	0.421683	0.874646	0.137477
0	O	0.662607	0.164315	0.138295
