#******************************************
#
# CIF file created by Zeo++
# Zeo++ is an open source package to
# analyze microporous materials
#
#*******************************************

_cell_length_a		35.5357(0)
_cell_length_b		11.0868(0)
_cell_length_c		14.9354(0)
_cell_angle_alpha		90(0)
_cell_angle_beta		91.7917(0)
_cell_angle_gamma		90(0)

_symmetry_space_group_name_H-M		'P1'
_symmetry_Int_Tables_number		1
_symmetry_cell_setting		Monoclinic

loop_
_symmetry_equiv_pos_as_xyz
'+x,+y,+z'

loop_
_atom_site_label
_atom_site_type_symbol
_atom_site_fract_x
_atom_site_fract_y
_atom_site_fract_z
0	Br	0.357509	0.254451	0.437241
0	Br	0.736527	0.265728	0.0999929
0	Br	0.717055	0.769763	0.637145
0	Br	0.366444	0.759968	0.93457
0	Br	0.880893	0.717915	0.393979
0	Br	0.203051	0.718584	0.157728
0	Br	0.21655	0.248272	0.656996
0	Br	0.868285	0.246068	0.926739
0	C	0.339513	0.288779	0.554306
0	C	0.751965	0.300269	0.980558
0	C	0.741677	0.724351	0.529315
0	C	0.342476	0.712754	0.0428813
0	C	0.856024	0.770622	0.499674
0	C	0.228437	0.767737	0.051773
0	C	0.234772	0.20844	0.541074
0	C	0.850812	0.209692	0.0442134
0	C	0.325475	0.195121	0.605958
0	C	0.763171	0.205606	0.925987
0	C	0.757224	0.815379	0.477539
0	C	0.327782	0.80229	0.0972972
0	C	0.84132	0.683602	0.556284
0	C	0.243128	0.679527	0.996161
0	C	0.249969	0.298686	0.488148
0	C	0.8358	0.301836	0.0956295
0	H	0.326065	0.101735	0.582811
0	H	0.762266	0.111991	0.948754
0	H	0.754231	0.91043	0.495481
0	H	0.330579	0.89785	0.0808794
0	H	0.844702	0.587228	0.543194
0	H	0.239563	0.583472	0.0099403
0	H	0.250449	0.392809	0.509714
0	H	0.834618	0.394835	0.0715618
0	C	0.310135	0.222186	0.688764
0	C	0.775889	0.231689	0.840366
0	C	0.777417	0.783418	0.40236
0	C	0.308911	0.768085	0.174039
0	C	0.821276	0.721502	0.630232
0	C	0.263082	0.715704	0.921489
0	C	0.264933	0.267245	0.405749
0	C	0.821758	0.27394	0.179745
0	H	0.298797	0.150006	0.730507
0	H	0.784963	0.158375	0.796381
0	H	0.790946	0.853594	0.362463
0	H	0.29647	0.837038	0.217118
0	H	0.808362	0.654492	0.674007
0	H	0.275445	0.64779	0.877506
0	H	0.276961	0.336965	0.362764
0	H	0.809694	0.345331	0.221145
0	C	0.309321	0.342303	0.718009
0	C	0.776919	0.351725	0.811021
0	C	0.781205	0.661194	0.37973
0	C	0.305418	0.645347	0.194981
0	C	0.816777	0.845211	0.646817
0	C	0.267879	0.838931	0.903989
0	C	0.264316	0.146319	0.378272
0	C	0.823408	0.154728	0.210885
0	C	0.325023	0.434729	0.666562
0	C	0.764631	0.445677	0.866287
0	C	0.763694	0.571402	0.43016
0	C	0.321378	0.556656	0.140665
0	C	0.833109	0.93116	0.590889
0	C	0.251818	0.926354	0.95918
0	C	0.247459	0.0575378	0.431049
0	C	0.839552	0.0636826	0.158907
0	H	0.325312	0.52757	0.69178
0	H	0.76482	0.538797	0.84168
0	H	0.765658	0.476603	0.410068
0	H	0.31914	0.461141	0.158547
0	H	0.830268	0.027436	0.605551
0	H	0.254973	0.0223835	0.943982
0	H	0.245777	0.96424	0.407038
0	H	0.841416	0.971478	0.185092
0	C	0.340083	0.408332	0.583784
0	C	0.752097	0.420271	0.951853
0	C	0.744106	0.602655	0.506449
0	C	0.339974	0.59029	0.0635952
0	C	0.852549	0.894073	0.515825
0	C	0.231971	0.890775	0.0339193
0	C	0.232795	0.088194	0.513433
0	C	0.853238	0.0906683	0.074729
0	H	0.352071	0.480701	0.543115
0	H	0.74227	0.493268	0.995099
0	H	0.731518	0.532119	0.54796
0	H	0.352244	0.520955	0.020642
0	H	0.864004	0.961348	0.469705
0	H	0.219675	0.959304	0.0776471
0	H	0.21979	0.0186619	0.554954
0	H	0.86582	0.0195129	0.0339936
0	C	0.292154	0.378162	0.802855
0	C	0.790797	0.38433	0.721729
0	C	0.804894	0.62329	0.30506
0	C	0.283682	0.60569	0.272614
0	C	0.793384	0.887024	0.72105
0	C	0.291405	0.879621	0.829625
0	C	0.280908	0.106153	0.293818
0	C	0.808798	0.119708	0.298976
0	O	0.296348	0.471681	0.843521
0	O	0.78438	0.473881	0.677936
0	O	0.819031	0.525715	0.291384
0	O	0.267616	0.510832	0.283562
0	O	0.775767	0.979928	0.728221
0	O	0.31156	0.967479	0.826319
0	O	0.275265	0.0132533	0.253383
0	O	0.818501	0.036977	0.34688
0	O	0.267788	0.288429	0.831049
0	O	0.815125	0.294554	0.693351
0	O	0.810272	0.719574	0.247549
0	O	0.283395	0.69637	0.336488
0	O	0.793765	0.799764	0.787506
0	O	0.287578	0.799958	0.758336
0	O	0.306989	0.191094	0.265862
0	O	0.779312	0.196768	0.3199
0	C	0.251304	0.293724	0.915262
0	C	0.833309	0.300451	0.611421
0	C	0.829804	0.70216	0.167963
0	C	0.261852	0.683105	0.41354
0	C	0.774102	0.817183	0.866855
0	C	0.310027	0.813752	0.682839
0	C	0.323427	0.184251	0.181806
0	C	0.7617	0.193413	0.402666
0	C	0.267315	0.355552	0.988598
0	C	0.81944	0.364199	0.536849
0	C	0.81288	0.635522	0.0981877
0	C	0.277171	0.620769	0.487382
0	C	0.790493	0.88734	0.935318
0	C	0.295286	0.878852	0.609723
0	C	0.307915	0.120987	0.108628
0	C	0.776016	0.132499	0.478112
0	H	0.29313	0.408044	0.982476
0	H	0.793699	0.417577	0.540722
0	H	0.786081	0.589531	0.107274
0	H	0.304245	0.574753	0.482736
0	H	0.816675	0.93618	0.925037
0	H	0.268312	0.925512	0.614495
0	H	0.282183	0.0680036	0.114693
0	H	0.802081	0.0804333	0.47536
0	C	0.249677	0.347902	0.070461
0	C	0.838784	0.356255	0.457261
0	C	0.830677	0.633117	0.0163101
0	C	0.257592	0.623326	0.56694
0	C	0.773112	0.889338	0.0178502
0	C	0.315164	0.877609	0.530614
0	C	0.325753	0.128204	0.0268743
0	C	0.756883	0.141844	0.557893
0	H	0.262096	0.394089	0.129033
0	H	0.827721	0.404114	0.397721
0	H	0.817616	0.584084	0.960188
0	H	0.269324	0.57784	0.626256
0	H	0.785872	0.941423	0.0728143
0	H	0.303841	0.924898	0.471653
0	H	0.313704	0.0806323	0.968432
0	H	0.768282	0.0964341	0.618163
0	C	0.216566	0.279726	0.0786095
0	C	0.871668	0.286246	0.452401
0	C	0.864582	0.696326	0.00531926
0	C	0.223475	0.687194	0.572023
0	C	0.740135	0.82223	0.0308331
0	C	0.349043	0.812532	0.525367
0	C	0.358564	0.197624	0.0186659
0	C	0.723806	0.210756	0.562197
0	C	0.201331	0.217788	0.00372094
0	C	0.884914	0.223393	0.528865
0	C	0.881157	0.760802	0.0773893
0	C	0.208586	0.746355	0.495673
0	C	0.724125	0.754272	0.959792
0	C	0.363386	0.750439	0.600983
0	C	0.373465	0.26028	0.0936789
0	C	0.710033	0.270783	0.484972
0	H	0.175929	0.162249	0.0104863
0	H	0.91032	0.167333	0.525228
0	H	0.907458	0.810496	0.0684065
0	H	0.181873	0.79586	0.49959
0	H	0.698518	0.700876	0.970179
0	H	0.389813	0.699496	0.596764
0	H	0.398701	0.316741	0.0871164
0	H	0.684473	0.326225	0.488221
0	C	0.218396	0.224808	0.921023
0	C	0.866054	0.230116	0.609195
0	C	0.863904	0.763461	0.160018
0	C	0.227494	0.744313	0.4152
0	C	0.740877	0.751656	0.876666
0	C	0.344108	0.751009	0.680951
0	C	0.356198	0.253988	0.176018
0	C	0.728692	0.262669	0.40442
0	H	0.20674	0.177145	0.862484
0	H	0.876141	0.182057	0.66896
0	H	0.876419	0.814014	0.216101
0	H	0.216129	0.790389	0.355626
0	H	0.728769	0.698103	0.821615
0	H	0.354922	0.702521	0.739842
0	H	0.367463	0.303266	0.23416
0	H	0.718268	0.309384	0.344336
0	C	0.198526	0.275571	0.165872
0	C	0.891871	0.281254	0.367835
0	C	0.882178	0.696606	0.917467
0	C	0.203598	0.69103	0.657199
0	C	0.722786	0.820152	0.119003
0	C	0.368876	0.808944	0.44023
0	C	0.376566	0.205385	0.931457
0	C	0.704542	0.218817	0.647851
0	C	0.195194	0.377864	0.214877
0	C	0.895938	0.382986	0.318602
0	C	0.886626	0.592854	0.871176
0	C	0.196173	0.587265	0.701068
0	C	0.717547	0.922381	0.166601
0	C	0.376421	0.912186	0.395776
0	C	0.379754	0.106769	0.878506
0	C	0.699434	0.118407	0.697843
0	H	0.204298	0.469086	0.197787
0	H	0.885544	0.47372	0.332979
0	H	0.879761	0.501129	0.891863
0	H	0.202417	0.495083	0.680354
0	H	0.724285	0.0149488	0.147739
0	H	0.370674	0.00476293	0.416419
0	H	0.37034	0.0143206	0.891185
0	H	0.707502	0.025459	0.682667
0	O	0.179617	0.384174	0.297467
0	O	0.913935	0.389471	0.238881
0	O	0.901188	0.58524	0.787338
0	O	0.178732	0.57991	0.781495
0	O	0.702061	0.927136	0.249561
0	O	0.393302	0.918303	0.314619
0	O	0.395527	0.106632	0.795725
0	O	0.683041	0.116602	0.779863
0	C	0.168456	0.277467	0.3384
0	C	0.927563	0.283426	0.201506
0	C	0.911984	0.691379	0.744966
0	C	0.167638	0.686295	0.823024
0	C	0.690433	0.819682	0.289176
0	C	0.403461	0.811011	0.272727
0	C	0.407034	0.215775	0.759443
0	C	0.672914	0.225841	0.818661
0	C	0.156121	0.291597	0.42593
0	C	0.942796	0.297686	0.116743
0	C	0.924417	0.675988	0.657789
0	C	0.15194	0.669861	0.906798
0	C	0.675966	0.832828	0.374576
0	C	0.418251	0.826111	0.187794
0	C	0.419438	0.208442	0.671331
0	C	0.659995	0.215998	0.906045
0	C	0.146424	0.183136	0.46821
0	C	0.955311	0.190031	0.0781423
0	C	0.934695	0.783533	0.615058
0	C	0.140793	0.777176	0.948645
0	C	0.663824	0.72433	0.413499
0	C	0.428517	0.717786	0.145829
0	C	0.429072	0.320006	0.634017
0	C	0.651532	0.32694	0.946262
0	O	0.136667	0.176663	0.555424
0	O	0.968888	0.184014	0.993796
0	O	0.944426	0.787742	0.527956
0	O	0.127606	0.7796	0.0326793
0	O	0.650911	0.717417	0.49783
0	O	0.441176	0.71331	0.0610885
0	O	0.439677	0.332967	0.547459
0	O	0.641505	0.337064	0.0332041
0	C	0.148304	0.0680624	0.426276
0	C	0.953174	0.0749594	0.120028
0	C	0.93447	0.899032	0.656741
0	C	0.143636	0.893821	0.90916
0	C	0.665496	0.610097	0.370159
0	C	0.425213	0.601945	0.186042
0	C	0.427592	0.43167	0.680524
0	C	0.655129	0.440546	0.903069
0	C	0.160921	0.0589803	0.339651
0	C	0.937481	0.0657737	0.203651
0	C	0.921256	0.909658	0.742731
0	C	0.16056	0.905212	0.827092
0	C	0.681438	0.601348	0.286942
0	C	0.409708	0.591934	0.269744
0	C	0.415642	0.434067	0.768146
0	C	0.667744	0.445294	0.816182
0	O	0.164054	0.948813	0.302041
0	O	0.934329	0.956124	0.242172
0	O	0.919919	0.0197317	0.78116
0	O	0.164516	0.0162367	0.791287
0	O	0.68432	0.491912	0.24806
0	O	0.40613	0.481288	0.30659
0	O	0.414463	0.540058	0.812067
0	O	0.671434	0.553443	0.776012
0	H	0.174438	0.955759	0.236816
0	H	0.92094	0.963268	0.304099
0	H	0.908672	0.0145432	0.846115
0	H	0.178402	0.0116023	0.729629
0	H	0.697279	0.498589	0.185293
0	H	0.392366	0.486616	0.367881
0	H	0.403889	0.528682	0.877279
0	H	0.68232	0.543411	0.711501
0	C	0.171384	0.166283	0.292841
0	C	0.924188	0.172541	0.247088
0	C	0.909321	0.803704	0.789275
0	C	0.173274	0.799283	0.781369
0	C	0.694373	0.708685	0.24366
0	C	0.397868	0.698802	0.3155
0	C	0.40458	0.323348	0.809554
0	C	0.677315	0.335219	0.771605
0	C	0.18522	0.160615	0.20238
0	C	0.907071	0.166776	0.33436
0	C	0.894412	0.81176	0.87845
0	C	0.192091	0.80698	0.696417
0	C	0.711098	0.703361	0.156502
0	C	0.379886	0.692335	0.4014
0	C	0.390284	0.322463	0.899702
0	C	0.692137	0.336449	0.68189
0	O	0.185589	0.0638027	0.160763
0	O	0.905663	0.0699871	0.375662
0	O	0.892736	0.909984	0.918012
0	O	0.197316	0.905945	0.660055
0	O	0.714731	0.605904	0.116734
0	O	0.374816	0.593861	0.438694
0	O	0.389804	0.416262	0.944953
0	O	0.694178	0.431847	0.639077
0	C	0.135656	0.974413	0.49067
0	C	0.968646	0.982454	0.0578765
0	C	0.949529	0.989388	0.592634
0	C	0.127634	0.983393	0.973006
0	C	0.648399	0.517649	0.429404
0	C	0.440212	0.509895	0.123068
0	C	0.439462	0.530377	0.619329
0	C	0.644324	0.53789	0.966727
0	H	0.156327	0.899606	0.4996
0	H	0.950321	0.901752	0.0513939
0	H	0.931076	0.0697902	0.584033
0	H	0.14606	0.0638976	0.98297
0	H	0.666616	0.437169	0.439896
0	H	0.420399	0.433369	0.111058
0	H	0.418405	0.604693	0.614675
0	H	0.666379	0.609012	0.973716
0	H	0.108603	0.933702	0.467176
0	H	0.996964	0.950716	0.0818213
0	H	0.977608	0.022501	0.61585
0	H	0.0996432	0.016341	0.948547
0	H	0.620933	0.485741	0.400514
0	H	0.467282	0.47212	0.149436
0	H	0.466598	0.570963	0.642747
0	H	0.617736	0.582414	0.944136
0	C	0.131368	0.0461002	0.578414
0	C	0.970239	0.0528508	0.968787
0	C	0.951542	0.917208	0.504364
0	C	0.125217	0.909758	0.0605163
0	C	0.64316	0.586717	0.517875
0	C	0.445721	0.582708	0.0363069
0	C	0.44299	0.465558	0.528555
0	C	0.63976	0.469015	0.0555643
0	H	0.154798	0.0297909	0.628686
0	H	0.943646	0.0399447	0.927229
0	H	0.927682	0.938274	0.456508
0	H	0.151338	0.922569	0.103215
0	H	0.665573	0.565889	0.569547
0	H	0.422386	0.568239	0.985464
0	H	0.418638	0.482684	0.481238
0	H	0.664567	0.480991	0.102785
0	C	0.153721	0.412328	0.470759
0	C	0.945364	0.417648	0.0707653
0	C	0.927807	0.555433	0.613273
0	C	0.147287	0.549421	0.950802
0	C	0.673346	0.951905	0.421678
0	C	0.422921	0.946594	0.143775
0	C	0.421425	0.0916711	0.620968
0	C	0.656392	0.0974284	0.953405
0	H	0.158023	0.401023	0.544407
0	H	0.938501	0.406251	0.998054
0	H	0.921099	0.564233	0.540203
0	H	0.158136	0.554839	0.0215782
0	H	0.684561	0.94214	0.491819
0	H	0.410775	0.942375	0.0741063
0	H	0.41458	0.108421	0.548758
0	H	0.662572	0.110523	0.0263402
0	H	0.17722	0.470842	0.448734
0	H	0.923624	0.479984	0.0966119
0	H	0.906532	0.491826	0.63952
0	H	0.165027	0.48073	0.917775
0	H	0.691895	0.0193135	0.389617
0	H	0.406231	0.0163345	0.178826
0	H	0.399234	0.0291745	0.644679
0	H	0.678315	0.0339979	0.929824
0	C	0.116297	0.471178	0.451316
0	C	0.984066	0.47018	0.0829812
0	C	0.967015	0.506849	0.626387
0	C	0.106735	0.511483	0.950858
0	C	0.633409	0.995696	0.423142
0	C	0.463635	0.981901	0.140349
0	C	0.459678	0.0347077	0.630129
0	C	0.617747	0.0442967	0.940393
0	H	0.0931708	0.429749	0.486428
0	H	0.00547117	0.423253	0.04493
0	H	0.988208	0.558668	0.591801
0	H	0.0884473	0.575615	0.984022
0	H	0.616221	0.947171	0.470491
0	H	0.480585	0.91896	0.102421
0	H	0.480899	0.0790183	0.590625
0	H	0.596081	0.0928324	0.975809
0	C	0.110315	0.564749	0.395693
0	C	0.993402	0.564528	0.135364
0	C	0.976448	0.409873	0.675851
0	C	0.0931299	0.40887	0.915034
0	C	0.618883	0.0845478	0.371856
0	C	0.479035	0.0800319	0.179142
0	C	0.468398	0.938158	0.680882
0	C	0.609176	0.946675	0.89069
0	C	0.140343	0.624397	0.343253
0	C	0.965956	0.633616	0.189597
0	C	0.948852	0.336984	0.726837
0	C	0.116713	0.320186	0.865901
0	C	0.640444	0.151771	0.303292
0	C	0.457745	0.16804	0.234301
0	C	0.441268	0.87493	0.739499
0	C	0.636947	0.877669	0.837461
0	H	0.133954	0.617638	0.270947
0	H	0.972144	0.621845	0.261545
0	H	0.956736	0.333664	0.798571
0	H	0.112277	0.331308	0.793162
0	H	0.626243	0.147231	0.237014
0	H	0.467888	0.16605	0.304511
0	H	0.450026	0.883815	0.810467
0	H	0.627925	0.872802	0.766525
0	H	0.168151	0.582458	0.355607
0	H	0.936727	0.603865	0.17677
0	H	0.920193	0.374903	0.721475
0	H	0.14704	0.332811	0.880318
0	H	0.66899	0.115093	0.295722
0	H	0.427375	0.147999	0.234101
0	H	0.412557	0.912212	0.732487
0	H	0.665071	0.919621	0.839973
0	H	0.143009	0.720753	0.359545
0	H	0.967154	0.73077	0.175307
0	H	0.947226	0.243583	0.702447
0	H	0.109944	0.2267	0.882629
0	H	0.643578	0.247473	0.320967
0	H	0.46077	0.260841	0.210128
0	H	0.439437	0.778068	0.724629
0	H	0.640237	0.784533	0.861529
0	C	0.0717244	0.617573	0.381427
0	C	0.0332057	0.608292	0.143124
0	C	0.0164493	0.367256	0.683286
0	C	0.0524188	0.375898	0.919883
0	C	0.578763	0.123954	0.380477
0	C	0.519996	0.108652	0.170068
0	C	0.507362	0.885972	0.68278
0	C	0.569687	0.898637	0.884915
0	H	0.0718044	0.715084	0.393609
0	H	0.0359704	0.700235	0.115139
0	H	0.0191644	0.27448	0.658726
0	H	0.0484843	0.285011	0.947967
0	H	0.577056	0.219948	0.397788
0	H	0.524171	0.201234	0.146496
0	H	0.50684	0.787283	0.676992
0	H	0.569143	0.800234	0.892862
0	H	0.0508269	0.577249	0.425002
0	H	0.0530536	0.551213	0.107402
0	H	0.0356961	0.423037	0.64477
0	H	0.0362776	0.437719	0.962147
0	H	0.564069	0.0732751	0.431931
0	H	0.533923	0.0483463	0.123105
0	H	0.524602	0.920028	0.628565
0	H	0.55165	0.936873	0.936066
0	H	0.0612826	0.603215	0.311528
0	H	0.0433488	0.611751	0.213743
0	H	0.0271098	0.369381	0.753732
0	H	0.0386296	0.377317	0.852408
0	H	0.562506	0.110729	0.316795
0	H	0.535425	0.0996937	0.235366
0	H	0.522615	0.908073	0.746412
0	H	0.556056	0.919486	0.819102
0	C	0.0925743	0.0330322	0.621765
0	C	0.00450807	0.0352287	0.908949
0	C	0.989459	0.920339	0.456721
0	C	0.0900832	0.920196	0.119433
0	C	0.60369	0.57735	0.558459
0	C	0.484355	0.570031	0.99228
0	C	0.480912	0.484629	0.482139
0	C	0.60249	0.490214	0.104085
0	O	0.0657092	0.0566318	0.550359
0	O	0.0373286	0.0704041	0.963452
0	O	0.0174458	0.896714	0.527459
0	O	0.0570192	0.880246	0.0710533
0	O	0.577212	0.573899	0.483936
0	O	0.511836	0.58143	0.0643001
0	O	0.511233	0.470443	0.548768
0	O	0.572912	0.480169	0.0355184
0	H	0.039675	0.0314086	0.56679
0	H	0.0602288	0.069641	0.926911
0	H	0.0423005	0.881469	0.501956
0	H	0.045269	0.948491	0.0354202
0	H	0.552375	0.541359	0.503536
0	H	0.537565	0.597843	0.0408205
0	H	0.512184	0.38702	0.570694
0	H	0.55045	0.438914	0.0588341
0	C	0.0873096	0.904166	0.656262
0	C	0.00887413	0.902708	0.883629
0	C	0.996891	0.0455802	0.418657
0	C	0.0854225	0.0510537	0.149423
0	C	0.600944	0.458935	0.611022
0	C	0.488209	0.444055	0.951378
0	C	0.485036	0.614733	0.451148
0	C	0.600698	0.618651	0.140683
0	H	0.0962445	0.835624	0.608552
0	H	0.0156622	0.84571	0.942495
0	H	0.990583	0.118182	0.465733
0	H	0.0780417	0.11162	0.0933964
0	H	0.605981	0.380577	0.568338
0	H	0.483158	0.372634	0.000219743
0	H	0.479985	0.679825	0.504747
0	H	0.606289	0.686625	0.08956
0	H	0.0574874	0.885618	0.668512
0	H	0.0317379	0.888801	0.837004
0	H	0.0267353	0.0568615	0.402763
0	H	0.0624502	0.0591239	0.196649
0	H	0.572877	0.448465	0.638679
0	H	0.51667	0.430207	0.926432
0	H	0.513954	0.632036	0.42909
0	H	0.572548	0.638295	0.165871
0	H	0.102986	0.887704	0.71942
0	H	0.98333	0.865628	0.850904
0	H	0.980275	0.062534	0.356792
0	H	0.110868	0.0863878	0.183513
0	H	0.621239	0.455383	0.66782
0	H	0.468555	0.430175	0.894277
0	H	0.465968	0.636218	0.394255
0	H	0.620645	0.633269	0.197157
0	C	0.0881308	0.12661	0.69558
0	C	0.00161232	0.117588	0.827498
0	C	0.991466	0.821504	0.386056
0	C	0.0940433	0.83272	0.198235
0	C	0.595609	0.68673	0.617054
0	C	0.48955	0.669231	0.922796
0	C	0.485528	0.39293	0.407295
0	C	0.59731	0.395633	0.176745
0	H	0.0895974	0.218077	0.6671
0	H	0.997498	0.212066	0.847971
0	H	0.985348	0.73271	0.415274
0	H	0.101877	0.742232	0.17503
0	H	0.599867	0.770898	0.579643
0	H	0.486717	0.758831	0.953502
0	H	0.481278	0.300109	0.430684
0	H	0.597947	0.303972	0.148687
0	H	0.110617	0.118764	0.74753
0	H	0.977489	0.0933971	0.782877
0	H	0.970991	0.836065	0.330278
0	H	0.115265	0.86235	0.24848
0	H	0.614255	0.689202	0.676912
0	H	0.468293	0.662891	0.867901
0	H	0.464821	0.408228	0.351953
0	H	0.620133	0.40086	0.228288
0	H	0.0609048	0.118123	0.72818
0	H	0.0270165	0.114403	0.787094
0	H	0.0192166	0.816854	0.356357
0	H	0.0671478	0.823797	0.231687
0	H	0.566479	0.686503	0.638774
0	H	0.517198	0.664587	0.892669
0	H	0.51359	0.398492	0.379019
0	H	0.570794	0.407422	0.211178
