#******************************************
#
# CIF file created by Zeo++
# Zeo++ is an open source package to
# analyze microporous materials
#
#*******************************************

_cell_length_a		24.9011(0)
_cell_length_b		25.125(0)
_cell_length_c		7.1988(0)
_cell_angle_alpha		90(0)
_cell_angle_beta		90(0)
_cell_angle_gamma		90(0)

_symmetry_space_group_name_H-M		'P1'
_symmetry_Int_Tables_number		1
_symmetry_cell_setting		Monoclinic

loop_
_symmetry_equiv_pos_as_xyz
'+x,+y,+z'

loop_
_atom_site_label
_atom_site_type_symbol
_atom_site_fract_x
_atom_site_fract_y
_atom_site_fract_z
0	O	0.912839	0.142741	0.221646
0	O	0.0997324	0.861008	0.235453
0	O	0.3643	0.410843	0.728999
0	O	0.649861	0.593953	0.728817
0	O	0.598891	0.644859	0.289036
0	O	0.414374	0.359398	0.288619
0	O	0.146347	0.91067	0.787664
0	O	0.866066	0.0928954	0.781617
0	H	0.890908	0.175743	0.211701
0	H	0.122314	0.828538	0.222233
0	H	0.331152	0.388895	0.717314
0	H	0.682869	0.615981	0.714716
0	H	0.620879	0.677769	0.302002
0	H	0.39257	0.326343	0.300429
0	H	0.17924	0.888354	0.799171
0	H	0.833576	0.115656	0.795831
0	O	0.262902	0.361611	0.666989
0	O	0.751145	0.643807	0.663083
0	O	0.148486	0.759945	0.169637
0	O	0.865181	0.244719	0.16781
0	O	0.247021	0.860152	0.845835
0	O	0.766259	0.144285	0.845849
0	O	0.364194	0.258631	0.349187
0	O	0.649431	0.745363	0.351607
0	H	0.255867	0.345258	0.546536
0	H	0.758608	0.660368	0.543271
0	H	0.164411	0.750864	0.0499795
0	H	0.849923	0.254901	0.0481901
0	H	0.254217	0.843635	0.965911
0	H	0.760098	0.16141	0.965575
0	H	0.347919	0.250887	0.469422
0	H	0.666009	0.752924	0.471493
0	C	0.0113889	0.191873	0.865081
0	C	0.00305936	0.811709	0.872541
0	C	0.314771	0.507583	0.368923
0	C	0.698817	0.496788	0.36918
0	C	0.500277	0.693201	0.647155
0	C	0.512985	0.311168	0.646893
0	C	0.195568	0.00783096	0.14697
0	C	0.81688	0.996578	0.143968
0	H	0.00716489	0.201292	0.715573
0	H	0.00794022	0.802282	0.723267
0	H	0.305024	0.502933	0.219762
0	H	0.708563	0.501342	0.219977
0	H	0.504671	0.70286	0.796425
0	H	0.508609	0.301598	0.796238
0	H	0.205094	0.00349128	0.296409
0	H	0.80742	0.00128514	0.293341
0	H	0.0421616	0.160086	0.873111
0	H	0.972393	0.843632	0.878783
0	H	0.346991	0.537969	0.37511
0	H	0.666467	0.466545	0.375547
0	H	0.469794	0.661123	0.640269
0	H	0.543518	0.343196	0.639702
0	H	0.163113	0.037941	0.139543
0	H	0.849319	0.966441	0.137317
0	C	0.958219	0.170424	0.939734
0	C	0.0559644	0.832914	0.950252
0	C	0.336287	0.455024	0.445277
0	C	0.677541	0.54947	0.445282
0	C	0.553564	0.672166	0.571888
0	C	0.459715	0.332241	0.571611
0	C	0.174596	0.955002	0.0710402
0	C	0.837828	0.0492142	0.0664073
0	H	0.942562	0.137158	0.853063
0	H	0.0722151	0.866035	0.864128
0	H	0.369568	0.439046	0.358566
0	H	0.64426	0.565495	0.358657
0	H	0.569652	0.639208	0.658808
0	H	0.443683	0.365262	0.658405
0	H	0.141301	0.938855	0.157453
0	H	0.871203	0.0655394	0.152081
0	H	0.926522	0.201218	0.933415
0	H	0.0874875	0.801903	0.946229
0	H	0.305004	0.423777	0.440872
0	H	0.708941	0.580608	0.440466
0	H	0.584935	0.703321	0.577148
0	H	0.428304	0.301142	0.577099
0	H	0.206093	0.923987	0.0764626
0	H	0.806336	0.0802513	0.0712759
0	C	0.965448	0.152104	0.142942
0	C	0.0476597	0.851409	0.152752
0	C	0.355094	0.462713	0.647943
0	C	0.658794	0.541991	0.648102
0	C	0.546326	0.653532	0.368978
0	C	0.466956	0.350791	0.368596
0	C	0.156058	0.962507	0.86811
0	C	0.856217	0.0412751	0.863538
0	C	0.992475	0.195156	0.256266
0	C	0.0202138	0.808315	0.264732
0	C	0.311817	0.489981	0.760645
0	C	0.701968	0.514569	0.760826
0	C	0.518626	0.696202	0.255839
0	C	0.494649	0.308078	0.255659
0	C	0.199514	0.989468	0.755451
0	C	0.812571	0.0142405	0.75196
0	H	0.986192	0.190942	0.405375
0	H	0.0259281	0.812498	0.414129
0	H	0.316182	0.484174	0.909888
0	H	0.697667	0.520476	0.910057
0	H	0.524702	0.691889	0.106683
0	H	0.488615	0.312365	0.106464
0	H	0.195596	0.983086	0.606311
0	H	0.816325	0.0203973	0.602655
0	C	0.0203105	0.235462	0.182356
0	C	0.992752	0.767999	0.189271
0	C	0.271034	0.51727	0.686237
0	C	0.742535	0.486946	0.68648
0	C	0.490625	0.7364	0.329688
0	C	0.522545	0.267827	0.329671
0	C	0.239731	0.0175206	0.830073
0	C	0.772403	0.986366	0.827698
0	C	0.0423298	0.279244	0.303739
0	C	0.970357	0.724034	0.309006
0	C	0.226771	0.539315	0.806776
0	C	0.786644	0.464618	0.807069
0	C	0.468181	0.780022	0.208523
0	C	0.544888	0.224119	0.208669
0	C	0.283699	0.0399996	0.709264
0	C	0.728248	0.963744	0.708046
0	H	0.0367029	0.269772	0.453259
0	H	0.975466	0.733264	0.459009
0	H	0.235887	0.533443	0.95643
0	H	0.777509	0.470465	0.956735
0	H	0.474101	0.770821	0.0589808
0	H	0.538993	0.233283	0.0591077
0	H	0.274313	0.0344213	0.559567
0	H	0.737369	0.969165	0.558059
0	H	0.0184453	0.315874	0.279119
0	H	0.994333	0.687453	0.284634
0	H	0.189641	0.516031	0.780687
0	H	0.823897	0.487734	0.781234
0	H	0.491559	0.816935	0.233976
0	H	0.521423	0.187269	0.234266
0	H	0.320965	0.0168221	0.733979
0	H	0.691	0.986908	0.733244
0	C	0.101973	0.28997	0.266732
0	C	0.910835	0.713311	0.269661
0	C	0.216581	0.598563	0.770155
0	C	0.796563	0.405334	0.770185
0	C	0.408372	0.789997	0.245087
0	C	0.604668	0.214009	0.245268
0	C	0.293651	0.0992338	0.746849
0	C	0.71841	0.904538	0.746526
0	H	0.126077	0.256223	0.320261
0	H	0.886504	0.746811	0.323956
0	H	0.250817	0.622071	0.824353
0	H	0.762168	0.38197	0.823953
0	H	0.384739	0.755897	0.191763
0	H	0.628395	0.248005	0.191626
0	H	0.259317	0.122698	0.693151
0	H	0.752636	0.881035	0.692204
0	H	0.11498	0.325468	0.345859
0	H	0.897709	0.677524	0.347032
0	H	0.1808	0.611747	0.848896
0	H	0.83222	0.391938	0.849181
0	H	0.394938	0.825273	0.165588
0	H	0.618001	0.178646	0.166037
0	H	0.329348	0.112667	0.668158
0	H	0.682561	0.891018	0.668817
0	C	0.113019	0.298086	0.0584572
0	C	0.900278	0.705837	0.0607865
0	C	0.208748	0.609699	0.561846
0	C	0.804471	0.394283	0.561911
0	C	0.397201	0.798096	0.453253
0	C	0.615841	0.206007	0.453497
0	C	0.301508	0.110103	0.955319
0	C	0.710963	0.893825	0.955268
0	H	0.090895	0.334199	0.010184
0	H	0.922377	0.669765	0.0119509
0	H	0.172023	0.588363	0.512994
0	H	0.841261	0.415601	0.513373
0	H	0.418922	0.834488	0.501376
0	H	0.594106	0.169665	0.50185
0	H	0.338131	0.0885117	0.00375106
0	H	0.674342	0.915327	0.00424672
0	C	0.0926818	0.248862	0.947305
0	C	0.921086	0.755272	0.951846
0	C	0.258235	0.588893	0.451114
0	C	0.755075	0.415284	0.451127
0	C	0.418148	0.749115	0.564503
0	C	0.595	0.255066	0.564488
0	C	0.251955	0.0893079	0.0656285
0	C	0.76063	0.91487	0.0644305
0	H	0.112192	0.212786	0.00874785
0	H	0.901661	0.791268	0.0142309
0	H	0.294851	0.60777	0.512804
0	H	0.718393	0.396501	0.512691
0	H	0.399127	0.712792	0.503017
0	H	0.61408	0.291333	0.502797
0	H	0.215388	0.108153	0.00350433
0	H	0.797143	0.896049	0.00185993
0	C	0.03061	0.241791	0.973768
0	C	0.983139	0.761882	0.980181
0	C	0.264638	0.527274	0.477555
0	C	0.748876	0.476916	0.4778
0	C	0.480343	0.742804	0.538243
0	C	0.532819	0.261478	0.538255
0	C	0.245721	0.0276959	0.0388425
0	C	0.766671	0.976467	0.0367336
0	C	0.108656	0.250981	0.740344
0	C	0.905502	0.753957	0.744488
0	C	0.256286	0.604734	0.244182
0	C	0.756967	0.399541	0.244107
0	C	0.402112	0.751148	0.771389
0	C	0.61106	0.253086	0.771358
0	C	0.253502	0.105155	0.272651
0	C	0.759438	0.899215	0.271637
0	H	0.0993558	0.212162	0.674445
0	H	0.914968	0.793029	0.680648
0	H	0.29521	0.594772	0.177879
0	H	0.717999	0.409491	0.178092
0	H	0.411827	0.712466	0.837505
0	H	0.601344	0.291773	0.837437
0	H	0.214223	0.0956889	0.337354
0	H	0.798776	0.908872	0.335577
0	H	0.0834333	0.280733	0.667321
0	H	0.930852	0.724493	0.67043
0	H	0.225716	0.580317	0.171479
0	H	0.787468	0.424037	0.171352
0	H	0.427005	0.781216	0.844262
0	H	0.586193	0.223018	0.844314
0	H	0.283475	0.0803073	0.346626
0	H	0.729495	0.924028	0.345945
0	C	0.168385	0.263655	0.706752
0	C	0.845817	0.741515	0.708867
0	C	0.244592	0.664157	0.210809
0	C	0.768708	0.340154	0.210213
0	C	0.34226	0.763256	0.804988
0	C	0.670933	0.240992	0.804831
0	C	0.265838	0.164423	0.306895
0	C	0.747373	0.839933	0.306748
0	H	0.193416	0.229846	0.753607
0	H	0.820758	0.775239	0.756299
0	H	0.279121	0.68835	0.25802
0	H	0.734192	0.315904	0.25718
0	H	0.317547	0.729205	0.75827
0	H	0.695628	0.275019	0.757855
0	H	0.23161	0.189023	0.259712
0	H	0.781614	0.815406	0.25924
0	H	0.175858	0.267635	0.556012
0	H	0.838707	0.738043	0.557718
0	H	0.2408	0.671685	0.0600547
0	H	0.77251	0.332724	0.0594035
0	H	0.334769	0.767208	0.955735
0	H	0.678448	0.237097	0.95558
0	H	0.26959	0.171747	0.45778
0	H	0.743865	0.832753	0.457808
0	C	0.184076	0.314839	0.810069
0	C	0.829766	0.690057	0.809801
0	C	0.193196	0.680532	0.313902
0	C	0.820098	0.323733	0.313245
0	C	0.326082	0.814247	0.701529
0	C	0.687067	0.189956	0.701639
0	C	0.317512	0.180416	0.204562
0	C	0.695611	0.823644	0.205488
0	C	0.173272	0.305106	0.0211949
0	C	0.840088	0.699138	0.0215863
0	C	0.202559	0.669563	0.52508
0	C	0.810615	0.334442	0.524525
0	C	0.336883	0.804567	0.490426
0	C	0.676186	0.199494	0.490491
0	C	0.307975	0.169865	0.993187
0	C	0.704777	0.834075	0.993844
0	H	0.193478	0.266925	0.0615032
0	H	0.819911	0.737266	0.0626599
0	H	0.241285	0.689011	0.566354
0	H	0.771834	0.315	0.565239
0	H	0.31703	0.766207	0.450175
0	H	0.696059	0.237793	0.449785
0	H	0.269311	0.189573	0.952657
0	H	0.74345	0.814467	0.952811
0	C	0.203879	0.350544	0.118707
0	C	0.809132	0.653521	0.116664
0	C	0.156925	0.700498	0.621572
0	C	0.856145	0.303326	0.620908
0	C	0.305814	0.84978	0.393303
0	C	0.707142	0.154171	0.393591
0	C	0.353653	0.200641	0.896458
0	C	0.659067	0.803055	0.898256
0	H	0.215128	0.340028	0.26197
0	H	0.797598	0.663638	0.260015
0	H	0.167333	0.711447	0.765174
0	H	0.845593	0.292159	0.764176
0	H	0.294526	0.83923	0.250128
0	H	0.718348	0.164581	0.250232
0	H	0.343017	0.211923	0.75334
0	H	0.669504	0.791739	0.754997
0	H	0.178963	0.386753	0.12851
0	H	0.833901	0.617201	0.125802
0	H	0.12003	0.676304	0.630285
0	H	0.893035	0.327501	0.630467
0	H	0.330455	0.886174	0.383267
0	H	0.682473	0.117788	0.384123
0	H	0.390356	0.176201	0.886398
0	H	0.622243	0.827334	0.888771
0	C	0.253764	0.360254	0.995725
0	C	0.759494	0.644345	0.992053
0	C	0.148071	0.750126	0.498566
0	C	0.865109	0.253879	0.497079
0	C	0.25595	0.859161	0.516771
0	C	0.757072	0.144864	0.51681
0	C	0.363083	0.249972	0.0203054
0	C	0.650065	0.753762	0.0226294
0	H	0.258295	0.402971	0.959739
0	H	0.754855	0.601738	0.954657
0	H	0.105164	0.755106	0.460779
0	H	0.908051	0.24893	0.459846
0	H	0.251208	0.901822	0.553026
0	H	0.761784	0.102232	0.5536
0	H	0.406136	0.254658	0.0566799
0	H	0.607085	0.748891	0.0597321
0	H	0.291405	0.349252	0.066625
0	H	0.721737	0.655322	0.0622846
0	H	0.15927	0.787289	0.570116
0	H	0.853777	0.21662	0.567752
0	H	0.218293	0.848086	0.446181
0	H	0.79469	0.155814	0.445767
0	H	0.351815	0.2873	0.949889
0	H	0.661408	0.71644	0.952305
0	C	0.245441	0.327549	0.816267
0	C	0.76835	0.67747	0.813823
0	C	0.181623	0.741563	0.320574
0	C	0.831799	0.262715	0.318713
0	C	0.264608	0.826412	0.695846
0	C	0.748558	0.177826	0.695503
0	C	0.330016	0.241322	0.199375
0	C	0.683347	0.762691	0.20107
0	H	0.270536	0.29113	0.811822
0	H	0.743348	0.713954	0.809734
0	H	0.218913	0.765667	0.318696
0	H	0.794589	0.238504	0.315535
0	H	0.239833	0.789782	0.700094
0	H	0.773288	0.214489	0.698875
0	H	0.293141	0.266	0.203957
0	H	0.720318	0.738152	0.205239
0	C	0.154142	0.362953	0.729558
0	C	0.859769	0.642118	0.728376
0	C	0.144141	0.6518	0.232962
0	C	0.869148	0.352678	0.23316
0	C	0.355613	0.86269	0.781422
0	C	0.657634	0.141545	0.78209
0	C	0.366131	0.150939	0.285313
0	C	0.646986	0.852981	0.286891
0	H	0.170379	0.400434	0.784297
0	H	0.843218	0.604506	0.780799
0	H	0.106608	0.668355	0.288311
0	H	0.906683	0.335868	0.287517
0	H	0.33973	0.899922	0.723513
0	H	0.673327	0.104291	0.723756
0	H	0.403889	0.166839	0.229413
0	H	0.609205	0.836791	0.232222
0	H	0.111226	0.361814	0.762962
0	H	0.902575	0.642985	0.763552
0	H	0.144628	0.609196	0.265598
0	H	0.86875	0.395162	0.267716
0	H	0.398709	0.861388	0.751007
0	H	0.614473	0.142914	0.752886
0	H	0.364899	0.10831	0.253381
0	H	0.647928	0.895568	0.254137
0	H	0.158148	0.364862	0.578262
0	H	0.856313	0.640807	0.57681
0	H	0.142205	0.656002	0.0817718
0	H	0.870978	0.349064	0.0817235
0	H	0.350716	0.865297	0.932259
0	H	0.662897	0.1389	0.932799
0	H	0.368236	0.155307	0.436452
0	H	0.645222	0.848831	0.438183
0	C	0.998764	0.290445	0.903784
0	C	0.0148554	0.713081	0.910791
0	C	0.215147	0.49633	0.407753
0	C	0.798472	0.50772	0.408085
0	C	0.511456	0.791942	0.607955
0	C	0.501626	0.212422	0.608225
0	C	0.295164	0.996763	0.109239
0	C	0.717226	0.00734679	0.107374
0	H	0.999633	0.293298	0.752147
0	H	0.0145852	0.71049	0.759071
0	H	0.212339	0.497047	0.256084
0	H	0.80127	0.507051	0.256416
0	H	0.510583	0.794836	0.759586
0	H	0.502547	0.209565	0.75986
0	H	0.298129	0.997958	0.260832
0	H	0.714465	0.00635333	0.259034
0	H	0.0147833	0.327728	0.959782
0	H	0.998321	0.675826	0.965195
0	H	0.177708	0.512795	0.463103
0	H	0.835854	0.49111	0.463366
0	H	0.494831	0.828984	0.552105
0	H	0.518155	0.17533	0.552427
0	H	0.332604	0.0128406	0.0525519
0	H	0.679757	0.991093	0.0515697
0	H	0.956601	0.287452	0.94682
0	H	0.0568678	0.715684	0.95591
0	H	0.2175	0.454537	0.451222
0	H	0.796259	0.54951	0.451724
0	H	0.553665	0.789647	0.564965
0	H	0.45941	0.214791	0.565395
0	H	0.292511	0.95485	0.0674222
0	H	0.719707	0.0492148	0.0648397
0	C	0.994361	0.0979919	0.154158
0	C	0.01844	0.905391	0.160987
0	C	0.409951	0.49093	0.657075
0	C	0.603822	0.514005	0.65766
0	C	0.518337	0.59892	0.359285
0	C	0.49491	0.405415	0.358706
0	C	0.101538	0.991349	0.857359
0	C	0.910612	0.0122104	0.852991
0	H	0.970933	0.0688227	0.0687046
0	H	0.0418427	0.934411	0.0748541
0	H	0.439067	0.466923	0.573004
0	H	0.574747	0.538143	0.573881
0	H	0.542633	0.570279	0.444024
0	H	0.470627	0.434056	0.443498
0	H	0.0717986	0.967563	0.939453
0	H	0.94038	0.0358016	0.93567
0	H	0.0342297	0.101454	0.087362
0	H	0.978714	0.901484	0.0934385
0	H	0.406944	0.530103	0.587734
0	H	0.606625	0.474838	0.588148
0	H	0.47866	0.601617	0.427759
0	H	0.534607	0.402741	0.427063
0	H	0.104824	0.0303872	0.927568
0	H	0.907118	0.973119	0.922688
0	C	0.999945	0.0770186	0.351285
0	C	0.0123742	0.926918	0.357142
0	C	0.431338	0.497197	0.853651
0	C	0.582502	0.507728	0.854313
0	C	0.512489	0.577522	0.162798
0	C	0.500697	0.426801	0.162177
0	C	0.0812788	0.998244	0.659646
0	C	0.931033	0.0054626	0.655406
0	H	0.0305703	0.0984781	0.430323
0	H	0.981575	0.905659	0.43602
0	H	0.410204	0.528304	0.930706
0	H	0.6035	0.476456	0.930999
0	H	0.481218	0.598324	0.0847002
0	H	0.531765	0.405826	0.083674
0	H	0.102901	0.0294851	0.584893
0	H	0.909727	0.974003	0.580693
0	H	0.0104781	0.0343776	0.351265
0	H	0.00185801	0.969557	0.355243
0	H	0.474529	0.506994	0.852713
0	H	0.539263	0.498129	0.853456
0	H	0.502672	0.534709	0.164045
0	H	0.510765	0.469557	0.163383
0	H	0.0381143	0.00810692	0.658056
0	H	0.974286	0.995981	0.654328
0	H	0.961554	0.0813424	0.427444
0	H	0.0505983	0.922775	0.434567
0	H	0.426444	0.459618	0.93218
0	H	0.587589	0.545221	0.933158
0	H	0.550538	0.582361	0.0850645
0	H	0.462547	0.422186	0.0848492
0	H	0.0865327	0.960837	0.58026
0	H	0.925513	0.0427714	0.575794
