#******************************************
#
# CIF file created by Zeo++
# Zeo++ is an open source package to
# analyze microporous materials
#
#*******************************************

_cell_length_a		34.7229(0)
_cell_length_b		34.7857(0)
_cell_length_c		5.54706(0)
_cell_angle_alpha		90(0)
_cell_angle_beta		90(0)
_cell_angle_gamma		120.728(0)

_symmetry_space_group_name_H-M		'P1'
_symmetry_Int_Tables_number		1
_symmetry_cell_setting		Monoclinic

loop_
_symmetry_equiv_pos_as_xyz
'+x,+y,+z'

loop_
_atom_site_label
_atom_site_type_symbol
_atom_site_fract_x
_atom_site_fract_y
_atom_site_fract_z
0	C	0.222162	0.0152693	0.325125
0	C	0.0224832	0.219042	0.317232
0	C	0.819212	0.815126	0.331471
0	C	0.819445	0.0167743	0.76894
0	C	0.0187779	0.812693	0.768509
0	C	0.222218	0.216921	0.758586
0	C	0.892714	0.343347	0.664943
0	C	0.691398	0.558472	0.664313
0	C	0.479082	0.145892	0.670357
0	C	0.479742	0.350487	0.0886751
0	C	0.687378	0.140556	0.0859242
0	C	0.894524	0.555302	0.0823534
0	C	0.561667	0.681616	0.00197485
0	C	0.353915	0.891527	0.00414102
0	C	0.146868	0.476725	0.00625024
0	C	0.1487	0.688611	0.42454
0	C	0.34986	0.473533	0.425623
0	C	0.562421	0.88623	0.419477
0	N	0.186794	0.0231361	0.323084
0	N	0.0140642	0.175505	0.319597
0	N	0.86325	0.850451	0.330634
0	N	0.854788	0.00886834	0.77052
0	N	0.0271945	0.85622	0.767592
0	N	0.178204	0.181579	0.759511
0	N	0.858293	0.352587	0.663302
0	N	0.681867	0.514567	0.661204
0	N	0.523567	0.180193	0.666685
0	N	0.514769	0.342195	0.0960044
0	N	0.696384	0.184254	0.0924007
0	N	0.850391	0.520209	0.08739
0	N	0.526652	0.68994	0.994861
0	N	0.344913	0.847828	0.997921
0	N	0.191015	0.511829	0.00155921
0	N	0.183109	0.679368	0.426593
0	N	0.359415	0.517446	0.428855
0	N	0.517962	0.8519	0.423312
0	C	0.199952	0.067696	0.192565
0	C	0.969698	0.143278	0.186565
0	C	0.894389	0.837546	0.197399
0	C	0.841674	0.964345	0.90133
0	C	0.0717052	0.888378	0.899748
0	C	0.147001	0.194512	0.891803
0	C	0.87299	0.39773	0.534202
0	C	0.636361	0.483364	0.534174
0	C	0.553577	0.165012	0.539819
0	C	0.50035	0.297014	0.222917
0	C	0.741561	0.215429	0.221823
0	C	0.819706	0.534343	0.215613
0	C	0.541075	0.735098	0.86769
0	C	0.299786	0.816646	0.868171
0	C	0.221705	0.497755	0.872888
0	C	0.168371	0.634215	0.555675
0	C	0.404954	0.548629	0.555729
0	C	0.487893	0.867079	0.549555
0	C	0.249845	0.0852813	0.111822
0	C	0.952255	0.175223	0.105017
0	C	0.861075	0.787835	0.115144
0	C	0.791784	0.946758	0.982181
0	C	0.0889944	0.856297	0.981087
0	C	0.180283	0.244246	0.973827
0	C	0.921985	0.412763	0.446257
0	C	0.621269	0.517055	0.449731
0	C	0.51834	0.116096	0.453169
0	C	0.450649	0.280451	0.303305
0	C	0.757543	0.182249	0.301967
0	C	0.853818	0.583818	0.298348
0	C	0.590768	0.751638	0.787225
0	C	0.283803	0.84981	0.78772
0	C	0.18764	0.448264	0.790278
0	C	0.11939	0.619229	0.643616
0	C	0.42	0.514898	0.640111
0	C	0.523093	0.91602	0.636023
0	N	0.264545	0.052914	0.218756
0	N	0.98514	0.223175	0.208237
0	N	0.813608	0.773094	0.221595
0	N	0.777071	0.979137	0.875579
0	N	0.0561483	0.808468	0.876426
0	N	0.22777	0.259004	0.867577
0	N	0.935855	0.380504	0.561698
0	N	0.654298	0.563935	0.562829
0	N	0.471974	0.102629	0.568854
0	N	0.436747	0.313073	0.191583
0	N	0.724228	0.135129	0.191262
0	N	0.900642	0.598061	0.185253
0	N	0.604661	0.719018	0.899081
0	N	0.31707	0.896932	0.898543
0	N	0.140764	0.434038	0.902672
0	N	0.105545	0.651494	0.528027
0	N	0.386952	0.468034	0.526892
0	N	0.569464	0.929524	0.520288
0	O	0.147447	0.994858	0.360557
0	O	0.0419451	0.164761	0.362982
0	O	0.875039	0.88967	0.369574
0	O	0.894108	0.0370734	0.731863
0	O	0.99925	0.866972	0.726303
0	O	0.166452	0.142337	0.721551
0	O	0.818728	0.325323	0.701532
0	O	0.709167	0.502757	0.695425
0	O	0.536763	0.219799	0.701153
0	O	0.554414	0.370364	0.0660742
0	O	0.668583	0.195586	0.0616145
0	O	0.838237	0.480725	0.0560943
0	O	0.487013	0.661805	0.0250963
0	O	0.372686	0.836484	0.0293936
0	O	0.203139	0.551301	0.033157
0	O	0.222693	0.706646	0.388765
0	O	0.332121	0.529268	0.394829
0	O	0.504804	0.81229	0.389342
0	O	0.295775	0.0714554	0.377059
0	O	0.966876	0.236135	0.364478
0	O	0.79988	0.741425	0.376966
0	O	0.745837	0.960592	0.717288
0	O	0.074405	0.795682	0.719199
0	O	0.241439	0.290547	0.711467
0	O	0.966074	0.399053	0.725708
0	O	0.636359	0.575917	0.726458
0	O	0.459602	0.0726055	0.733744
0	O	0.406067	0.294837	0.0303446
0	O	0.742091	0.122162	0.0330798
0	O	0.913497	0.628747	0.0245626
0	O	0.635333	0.73726	0.0604091
0	O	0.299142	0.909848	0.0566585
0	O	0.127714	0.403181	0.0624353
0	O	0.0753047	0.632942	0.364181
0	O	0.40486	0.456061	0.363036
0	O	0.581728	0.959425	0.354775
0	C	0.193811	0.0965438	0.376921
0	C	0.940388	0.107308	0.368403
0	C	0.929793	0.843489	0.379667
0	C	0.847801	0.935454	0.717207
0	C	0.100964	0.92416	0.716991
0	C	0.111663	0.188519	0.708973
0	C	0.869721	0.427991	0.72102
0	C	0.606384	0.449143	0.721799
0	C	0.586874	0.168098	0.728471
0	C	0.505537	0.268091	0.0350067
0	C	0.771003	0.250258	0.0354186
0	C	0.785455	0.529474	0.0283633
0	C	0.5359	0.764063	0.0553667
0	C	0.270294	0.781788	0.0543
0	C	0.256053	0.502711	0.0597615
0	C	0.171587	0.603942	0.368757
0	C	0.434919	0.58281	0.367924
0	C	0.454632	0.86393	0.360514
0	H	0.199902	0.128069	0.295729
0	H	0.90858	0.0818564	0.286462
0	H	0.954432	0.836466	0.29781
0	H	0.841582	0.903888	0.798453
0	H	0.132845	0.949652	0.798211
0	H	0.0869795	0.195552	0.790146
0	H	0.877248	0.460065	0.640527
0	H	0.574022	0.424041	0.642948
0	H	0.611187	0.160172	0.650305
0	H	0.49954	0.236487	0.114647
0	H	0.803089	0.275805	0.114593
0	H	0.760535	0.536456	0.106945
0	H	0.541919	0.795658	0.975498
0	H	0.238268	0.756208	0.974729
0	H	0.280976	0.49577	0.980859
0	H	0.164021	0.571846	0.449159
0	H	0.467309	0.6079	0.446596
0	H	0.430307	0.871896	0.438128
0	H	0.159703	0.0802097	0.451575
0	H	0.956354	0.0893425	0.439874
0	H	0.948952	0.877687	0.451731
0	H	0.881933	0.951724	0.642926
0	H	0.0850352	0.942142	0.645245
0	H	0.092538	0.154302	0.637139
0	H	0.836053	0.413378	0.799857
0	H	0.62107	0.430318	0.798024
0	H	0.606812	0.201732	0.80675
0	H	0.539369	0.284169	0.957014
0	H	0.755537	0.268451	0.960423
0	H	0.766344	0.495554	0.952705
0	H	0.502068	0.748015	0.133313
0	H	0.285757	0.763621	0.129695
0	H	0.275141	0.536642	0.135314
0	H	0.205248	0.618517	0.289859
0	H	0.420249	0.601654	0.291765
0	H	0.4347	0.830264	0.282628
0	H	0.2172	0.106384	0.531208
0	H	0.930883	0.120395	0.525185
0	H	0.915889	0.820624	0.536052
0	H	0.824474	0.925668	0.562641
0	H	0.11034	0.910895	0.560519
0	H	0.125603	0.211341	0.552446
0	H	0.893717	0.436799	0.871534
0	H	0.598005	0.464062	0.874382
0	H	0.570808	0.144303	0.879264
0	H	0.481579	0.258565	0.883749
0	H	0.779787	0.23592	0.881645
0	H	0.800503	0.55293	0.875246
0	H	0.559852	0.773605	0.206669
0	H	0.261401	0.796085	0.207807
0	H	0.241092	0.47927	0.213003
0	H	0.147596	0.595169	0.218262
0	H	0.443243	0.567852	0.215306
0	H	0.470727	0.887662	0.209504
0	C	0.166461	0.0561163	0.987356
0	C	0.981953	0.122141	0.981738
0	C	0.91668	0.871268	0.993162
0	C	0.875202	0.976011	0.106481
0	C	0.0597676	0.909774	0.104581
0	C	0.124622	0.160828	0.0961182
0	C	0.838943	0.387736	0.334033
0	C	0.64587	0.459615	0.331799
0	C	0.5787	0.198684	0.338965
0	C	0.533506	0.307078	0.428006
0	C	0.731402	0.238083	0.42736
0	C	0.795938	0.500873	0.419186
0	C	0.507904	0.724996	0.66265
0	C	0.310007	0.794012	0.662784
0	C	0.245346	0.531215	0.669107
0	C	0.20241	0.644151	0.755825
0	C	0.395492	0.572417	0.758105
0	C	0.462732	0.833432	0.750443
0	H	0.167503	0.0337667	0.851391
0	H	0.00435298	0.146218	0.846534
0	H	0.893039	0.870348	0.858871
0	H	0.874077	0.998301	0.242567
0	H	0.0373213	0.88582	0.24009
0	H	0.14821	0.161793	0.230926
0	H	0.837522	0.364079	0.198427
0	H	0.66913	0.482358	0.194718
0	H	0.556657	0.200198	0.202381
0	H	0.533498	0.329913	0.564423
0	H	0.708213	0.214583	0.562299
0	H	0.818823	0.500767	0.555214
0	H	0.507872	0.702109	0.52646
0	H	0.333227	0.817512	0.527953
0	H	0.222378	0.53127	0.533456
0	H	0.203824	0.667776	0.89163
0	H	0.372236	0.549685	0.895228
0	H	0.484745	0.831975	0.887434
0	H	0.172519	0.0866744	0.893178
0	H	0.951582	0.0968707	0.886146
0	H	0.940988	0.865379	0.89664
0	H	0.869223	0.945471	0.200573
0	H	0.0902538	0.934957	0.19969
0	H	0.100248	0.166713	0.191939
0	H	0.846548	0.418675	0.238946
0	H	0.614603	0.435478	0.238996
0	H	0.601773	0.190694	0.245284
0	H	0.526271	0.27607	0.521043
0	H	0.762386	0.262194	0.522373
0	H	0.772181	0.507872	0.51313
0	H	0.51516	0.75598	0.569262
0	H	0.27905	0.76991	0.567549
0	H	0.269086	0.524249	0.574723
0	H	0.194789	0.613182	0.850635
0	H	0.426778	0.596548	0.850808
0	H	0.439591	0.841392	0.843587
0	H	0.131829	0.0396085	0.0552445
0	H	0.998637	0.104624	0.0500256
0	H	0.935541	0.905742	0.0622648
0	H	0.909835	0.992601	0.0385449
0	H	0.0432255	0.927433	0.0363132
0	H	0.105817	0.126337	0.0271924
0	H	0.804825	0.37336	0.40723
0	H	0.660558	0.440341	0.402462
0	H	0.599375	0.232785	0.411227
0	H	0.568072	0.322545	0.359929
0	H	0.716223	0.257092	0.359621
0	H	0.776257	0.46647	0.349567
0	H	0.473346	0.709583	0.730769
0	H	0.325153	0.774986	0.730706
0	H	0.265024	0.565629	0.738589
0	H	0.236527	0.658543	0.682594
0	H	0.380806	0.591693	0.687451
0	H	0.442125	0.799312	0.678338
0	C	0.282155	0.132986	0.195673
0	C	0.904729	0.159207	0.191847
0	C	0.875949	0.755562	0.197067
0	C	0.759461	0.899085	0.897966
0	C	0.136607	0.872332	0.895729
0	C	0.165388	0.276471	0.891341
0	C	0.955971	0.46109	0.51231
0	C	0.573173	0.501894	0.521771
0	C	0.531806	0.0820389	0.520176
0	C	0.417727	0.232524	0.22512
0	C	0.805383	0.197712	0.223001
0	C	0.839093	0.616647	0.22501
0	C	0.623705	0.799578	0.865213
0	C	0.235941	0.834334	0.866227
0	C	0.202344	0.415456	0.864442
0	C	0.0853738	0.570905	0.577704
0	C	0.46809	0.530025	0.56815
0	C	0.509558	0.950018	0.568876
0	H	0.285185	0.134787	0.393344
0	H	0.903176	0.159965	0.389818
0	H	0.876156	0.75332	0.394843
0	H	0.756491	0.897323	0.700257
0	H	0.138383	0.871797	0.697776
0	H	0.165342	0.278754	0.69353
0	H	0.961888	0.464905	0.708059
0	H	0.569963	0.503363	0.718365
0	H	0.529238	0.0760291	0.715905
0	H	0.413791	0.230082	0.0279609
0	H	0.808045	0.197187	0.0256259
0	H	0.839673	0.62056	0.0280881
0	H	0.62778	0.802019	0.0623028
0	H	0.23328	0.83506	0.0635317
0	H	0.202023	0.411824	0.0614676
0	H	0.0796113	0.567019	0.381865
0	H	0.471355	0.528724	0.371501
0	H	0.5123	0.956137	0.373213
0	H	0.272276	0.156887	0.137127
0	H	0.880387	0.125157	0.131798
0	H	0.909455	0.764894	0.131513
0	H	0.769258	0.875125	0.956567
0	H	0.160914	0.906302	0.957115
0	H	0.131811	0.267067	0.956005
0	H	0.945653	0.484464	0.452958
0	H	0.549272	0.467893	0.461213
0	H	0.565854	0.0923285	0.462681
0	H	0.427675	0.208715	0.283783
0	H	0.829713	0.231549	0.285863
0	H	0.805395	0.606599	0.289257
0	H	0.613677	0.823351	0.807139
0	H	0.211657	0.800418	0.804225
0	H	0.23594	0.425334	0.799111
0	H	0.0955587	0.547489	0.638234
0	H	0.492026	0.563954	0.629565
0	H	0.475434	0.93961	0.625419
0	H	0.316143	0.144338	0.128793
0	H	0.893766	0.182081	0.128559
0	H	0.851902	0.721462	0.135038
0	H	0.725456	0.887773	0.964458
0	H	0.147436	0.849341	0.958851
0	H	0.189342	0.310572	0.953772
0	H	0.988848	0.471217	0.431632
0	H	0.563117	0.524784	0.446908
0	H	0.508476	0.0492933	0.438574
0	H	0.384092	0.221539	0.29659
0	H	0.815624	0.174513	0.290345
0	H	0.862751	0.650213	0.295584
0	H	0.6573	0.810607	0.793
0	H	0.225619	0.857401	0.797731
0	H	0.178536	0.381812	0.795452
0	H	0.0524473	0.560892	0.657405
0	H	0.478046	0.507006	0.642307
0	H	0.53274	0.982736	0.651215
0	C	0.253546	0.081182	0.839892
0	C	0.955835	0.182452	0.832594
0	C	0.853156	0.78442	0.843265
0	C	0.788099	0.950797	0.25418
0	C	0.0850906	0.8488	0.253297
0	C	0.188154	0.247707	0.245732
0	C	0.923319	0.405022	0.176383
0	C	0.627885	0.526078	0.179216
0	C	0.509109	0.114536	0.183354
0	C	0.447253	0.285749	0.574286
0	C	0.752417	0.173496	0.573151
0	C	0.862935	0.586844	0.569
0	C	0.594132	0.746296	0.516265
0	C	0.289001	0.858555	0.516527
0	C	0.178615	0.445145	0.519482
0	C	0.118073	0.62701	0.913451
0	C	0.413352	0.505852	0.910598
0	C	0.532343	0.917622	0.905819
0	H	0.232553	0.046739	0.775868
0	H	0.990198	0.196303	0.766939
0	H	0.840378	0.805689	0.780777
0	H	0.809188	0.98521	0.318468
0	H	0.0506805	0.835013	0.317969
0	H	0.200799	0.226356	0.308799
0	H	0.899926	0.370321	0.12436
0	H	0.662503	0.538616	0.122514
0	H	0.498459	0.137994	0.130199
0	H	0.469106	0.320246	0.635109
0	H	0.717936	0.160351	0.634752
0	H	0.875122	0.564872	0.627405
0	H	0.572338	0.711772	0.455721
0	H	0.323508	0.871755	0.455297
0	H	0.166289	0.466977	0.460574
0	H	0.141573	0.661688	0.965432
0	H	0.378747	0.4934	0.967239
0	H	0.542922	0.894121	0.959232
0	H	0.287973	0.0906318	0.783177
0	H	0.946557	0.207243	0.774917
0	H	0.827301	0.750177	0.785877
0	H	0.753696	0.941451	0.31089
0	H	0.0941796	0.823868	0.310982
0	H	0.214085	0.281925	0.303029
0	H	0.956597	0.411596	0.115112
0	H	0.620719	0.552342	0.120405
0	H	0.4815	0.0813408	0.12311
0	H	0.413166	0.277476	0.630696
0	H	0.760415	0.147674	0.628593
0	H	0.889544	0.620803	0.62588
0	H	0.628235	0.754642	0.459674
0	H	0.280953	0.884323	0.460736
0	H	0.152123	0.411129	0.462736
0	H	0.084837	0.62057	0.974585
0	H	0.420417	0.479511	0.969299
0	H	0.559999	0.950802	0.965881
0	H	0.24473	0.102792	0.737878
0	H	0.933805	0.151375	0.732931
0	H	0.883724	0.793076	0.740863
0	H	0.796797	0.929069	0.355905
0	H	0.107111	0.87976	0.353822
0	H	0.157585	0.239185	0.34786
0	H	0.916157	0.427191	0.0682341
0	H	0.605548	0.496125	0.0723717
0	H	0.538527	0.121341	0.0751549
0	H	0.455093	0.263793	0.679776
0	H	0.774712	0.203712	0.678372
0	H	0.833056	0.579011	0.675814
0	H	0.586198	0.76817	0.410653
0	H	0.266778	0.828322	0.411301
0	H	0.208564	0.453098	0.41301
0	H	0.125109	0.604758	0.021691
0	H	0.435746	0.535772	0.0175525
0	H	0.502948	0.910903	0.0139706
0	N	0.21904	0.976595	0.412684
0	N	0.0614755	0.255283	0.403589
0	N	0.783676	0.818009	0.421187
0	N	0.82253	0.0553997	0.680863
0	N	0.979784	0.776491	0.681908
0	N	0.257799	0.214087	0.669122
0	N	0.888892	0.30434	0.751594
0	N	0.730871	0.594252	0.749132
0	N	0.444083	0.149998	0.756746
0	N	0.483497	0.389338	0.999494
0	N	0.648123	0.104997	0.997182
0	N	0.929909	0.551647	0.997795
0	N	0.55783	0.642698	0.0905885
0	N	0.39315	0.927103	0.0929784
0	N	0.111488	0.480405	0.0906691
0	N	0.152456	0.727531	0.336859
0	N	0.310365	0.437782	0.340869
0	N	0.597461	0.882172	0.333263
0	O	0.190559	0.954276	0.563179
0	O	0.083732	0.249422	0.55381
0	O	0.790406	0.845995	0.574602
0	O	0.851038	0.0776998	0.530413
0	O	0.95758	0.782388	0.531537
0	O	0.251145	0.18617	0.515465
0	O	0.860378	0.282207	0.902258
0	O	0.753091	0.588105	0.89819
0	O	0.451248	0.178677	0.90645
0	O	0.511977	0.411194	0.848148
0	O	0.626721	0.111444	0.844237
0	O	0.923269	0.523047	0.848602
0	O	0.529235	0.620748	0.241247
0	O	0.414547	0.920676	0.246041
0	O	0.118137	0.509024	0.239781
0	O	0.180794	0.749458	0.185022
0	O	0.288131	0.44397	0.192096
0	O	0.590346	0.853487	0.183722
0	C	0.248537	0.957524	0.311382
0	C	0.0810338	0.304237	0.301514
0	C	0.734421	0.788842	0.320287
0	C	0.792918	0.0744165	0.781289
0	C	0.960161	0.727528	0.784
0	C	0.307021	0.243265	0.770541
0	C	0.918093	0.284895	0.650491
0	C	0.750764	0.643247	0.64705
0	C	0.394717	0.120976	0.656563
0	C	0.454467	0.408991	0.0995784
0	C	0.627509	0.0560052	0.0997726
0	C	0.97895	0.580908	0.101741
0	C	0.586854	0.62305	0.990419
0	C	0.413738	0.976084	0.990251
0	C	0.0624485	0.451188	0.986755
0	C	0.123367	0.747107	0.437855
0	C	0.290443	0.388768	0.442766
0	C	0.646827	0.911306	0.433398
0	C	0.224584	0.908324	0.383249
0	C	0.130177	0.330261	0.376598
0	C	0.709846	0.81294	0.39382
0	C	0.816733	0.123555	0.708347
0	C	0.910978	0.701616	0.709601
0	C	0.331617	0.21916	0.697605
0	C	0.893516	0.235577	0.720657
0	C	0.800284	0.668612	0.714843
0	C	0.370461	0.145519	0.727675
0	C	0.479689	0.458482	0.0326483
0	C	0.577762	0.0316039	0.0362671
0	C	0.00333389	0.556067	0.0396194
0	C	0.561615	0.573545	0.0570977
0	C	0.46349	0.000512742	0.0536447
0	C	0.0380806	0.476038	0.0491341
0	C	0.147986	0.796389	0.366935
0	C	0.240942	0.363421	0.374604
0	C	0.671138	0.886787	0.363027
0	H	0.245674	0.894352	0.32139
0	H	0.14443	0.365724	0.316851
0	H	0.674378	0.792209	0.330925
0	H	0.795488	0.137444	0.768741
0	H	0.896618	0.666203	0.770537
0	H	0.367057	0.239881	0.761015
0	H	0.914127	0.221164	0.657539
0	H	0.814883	0.704089	0.654265
0	H	0.334863	0.124781	0.666533
0	H	0.459082	0.472938	0.0950546
0	H	0.562266	0.996799	0.108056
0	H	0.0379941	0.575897	0.114401
0	H	0.582204	0.559082	0.994465
0	H	0.478952	0.0353269	0.981983
0	H	0.00337228	0.456158	0.975054
0	H	0.127372	0.81084	0.429429
0	H	0.226328	0.327934	0.435012
0	H	0.70668	0.907482	0.425203
0	H	0.191623	0.888341	0.298913
0	H	0.150159	0.317708	0.292657
0	H	0.72384	0.846081	0.311963
0	H	0.849626	0.143717	0.793166
0	H	0.891149	0.714402	0.792983
0	H	0.317575	0.18601	0.779432
0	H	0.860491	0.216069	0.636411
0	H	0.819397	0.655494	0.626494
0	H	0.38441	0.17838	0.642529
0	H	0.512468	0.477553	0.11979
0	H	0.559977	0.0468064	0.117461
0	H	0.987751	0.522585	0.11856
0	H	0.528831	0.554507	0.969996
0	H	0.481283	0.985341	0.972204
0	H	0.0535972	0.509475	0.969678
0	H	0.180999	0.815917	0.451289
0	H	0.221791	0.376516	0.462775
0	H	0.657093	0.853874	0.447717
0	H	0.220397	0.903049	0.578867
0	H	0.134993	0.330972	0.572522
0	H	0.70868	0.816692	0.589827
0	H	0.82104	0.12869	0.512716
0	H	0.906074	0.700692	0.513637
0	H	0.332881	0.215433	0.501634
0	H	0.889388	0.230203	0.916273
0	H	0.806018	0.669452	0.909869
0	H	0.369659	0.149877	0.923296
0	H	0.484489	0.464449	0.837559
0	H	0.571351	0.0287145	0.840986
0	H	0.00681726	0.553	0.844531
0	H	0.556824	0.567551	0.252168
0	H	0.469923	0.00338983	0.248908
0	H	0.0347347	0.47921	0.244231
0	H	0.152143	0.801675	0.171277
0	H	0.235264	0.362614	0.179538
0	H	0.672144	0.882536	0.167411
0	C	0.294463	0.983618	0.427227
0	C	0.0549756	0.3238	0.413851
0	C	0.713484	0.742927	0.43548
0	C	0.746987	0.0481407	0.665714
0	C	0.986076	0.707859	0.671062
0	C	0.327962	0.289157	0.655075
0	C	0.963754	0.310438	0.76989
0	C	0.725964	0.66354	0.766815
0	C	0.37357	0.0753548	0.775595
0	C	0.408916	0.384039	0.97841
0	C	0.651443	0.0349917	0.977843
0	C	0.000469941	0.626302	0.979947
0	C	0.632406	0.647976	0.111646
0	C	0.389786	0.997084	0.112151
0	C	0.040892	0.40577	0.108297
0	C	0.0776524	0.721572	0.319069
0	C	0.315254	0.368466	0.323232
0	C	0.66787	0.956844	0.313469
0	H	0.317983	0.976934	0.325334
0	H	0.0625078	0.354389	0.311539
0	H	0.682717	0.719624	0.333339
0	H	0.723468	0.0549761	0.766523
0	H	0.978615	0.677322	0.773672
0	H	0.358739	0.312475	0.757126
0	H	0.987552	0.30447	0.667159
0	H	0.732748	0.693709	0.663755
0	H	0.343102	0.0517361	0.673367
0	H	0.385346	0.390587	0.0803387
0	H	0.64403	0.00444455	0.0796222
0	H	0.031001	0.649925	0.0827465
0	H	0.655976	0.641471	0.00941384
0	H	0.397085	0.0275541	0.0100004
0	H	0.0103389	0.382195	0.00545738
0	H	0.0539969	0.727842	0.421341
0	H	0.308346	0.338221	0.425965
0	H	0.698282	0.980614	0.415418
0	H	0.308725	0.0204943	0.423334
0	H	0.0180128	0.300766	0.40596
0	H	0.735748	0.728548	0.430696
0	H	0.732751	0.0112783	0.671522
0	H	0.0230589	0.730871	0.677744
0	H	0.305701	0.303538	0.659657
0	H	0.978058	0.347356	0.77241
0	H	0.688906	0.640726	0.768943
0	H	0.395781	0.0608985	0.776906
0	H	0.39413	0.347064	0.976905
0	H	0.6886	0.0572465	0.976593
0	H	0.978458	0.640971	0.977132
0	H	0.64718	0.684948	0.113593
0	H	0.352638	0.974778	0.113924
0	H	0.0628642	0.391053	0.110789
0	H	0.0632086	0.684639	0.318086
0	H	0.352319	0.391238	0.321793
0	H	0.645553	0.971184	0.31127
0	H	0.295138	0.973657	0.61409
0	H	0.064332	0.334359	0.601486
0	H	0.702905	0.742219	0.622572
0	H	0.746293	0.0577858	0.478243
0	H	0.976517	0.697185	0.48371
0	H	0.338528	0.289825	0.467984
0	H	0.963962	0.299421	0.955101
0	H	0.737126	0.674841	0.952036
0	H	0.362586	0.0751991	0.961324
0	H	0.409061	0.395079	0.792943
0	H	0.640289	0.0241739	0.792146
0	H	0.0115384	0.62616	0.794817
0	H	0.632261	0.636859	0.296933
0	H	0.401028	0.00801868	0.297639
0	H	0.0298428	0.40589	0.29348
0	H	0.0774199	0.732348	0.133356
0	H	0.304214	0.357283	0.137753
0	H	0.678895	0.956907	0.127914
0	C	0.249612	0.962494	0.0389565
0	C	0.0765803	0.300294	0.0288231
0	C	0.737912	0.787748	0.0477188
0	C	0.791834	0.0695969	0.0538018
0	C	0.96472	0.731486	0.056652
0	C	0.303443	0.244371	0.0430481
0	C	0.919602	0.29007	0.378219
0	C	0.745066	0.639318	0.374947
0	C	0.398257	0.11955	0.384132
0	C	0.452005	0.403046	0.371507
0	C	0.633934	0.0598222	0.371425
0	C	0.974704	0.583334	0.373159
0	C	0.589323	0.629035	0.7185
0	C	0.407289	0.972239	0.718617
0	C	0.0666725	0.448788	0.715301
0	C	0.121922	0.742076	0.710186
0	C	0.296073	0.392675	0.714919
0	C	0.643275	0.912853	0.705747
0	H	0.216235	0.946501	0.955127
0	H	0.0930276	0.283642	0.946274
0	H	0.755806	0.821037	0.963489
0	H	0.825209	0.0856417	0.137728
0	H	0.948281	0.74812	0.139499
0	H	0.285647	0.21108	0.127323
0	H	0.886398	0.274409	0.292834
0	H	0.760136	0.621778	0.288183
0	H	0.416242	0.152704	0.29883
0	H	0.484673	0.417828	0.460732
0	H	0.619594	0.0776636	0.461229
0	H	0.956659	0.550764	0.462686
0	H	0.556662	0.614337	0.629324
0	H	0.42151	0.954285	0.628858
0	H	0.0847764	0.481358	0.625836
0	H	0.155148	0.757835	0.795429
0	H	0.280875	0.410116	0.801518
0	H	0.625314	0.879735	0.791421
0	H	0.268675	0.997581	0.979162
0	H	0.041533	0.283247	0.967019
0	H	0.753488	0.768717	0.986488
0	H	0.772798	0.0345333	0.114042
0	H	0.999786	0.748531	0.118161
0	H	0.287716	0.26328	0.103942
0	H	0.939122	0.325184	0.319148
0	H	0.709796	0.623294	0.317887
0	H	0.413686	0.100285	0.324404
0	H	0.431785	0.367773	0.427241
0	H	0.669292	0.0753221	0.426118
0	H	0.959139	0.602821	0.426501
0	H	0.609611	0.664311	0.662904
0	H	0.371934	0.956834	0.664054
0	H	0.0821562	0.429233	0.661809
0	H	0.102465	0.706992	0.769799
0	H	0.331334	0.408782	0.772266
0	H	0.627795	0.932101	0.764964
0	H	0.267213	0.945924	0.96129
0	H	0.0930295	0.3349	0.952447
0	H	0.703159	0.770061	0.971643
0	H	0.774194	0.0861758	0.130807
0	H	0.94829	0.696873	0.133033
0	H	0.338175	0.262179	0.119411
0	H	0.936922	0.273178	0.300207
0	H	0.762202	0.673869	0.296937
0	H	0.363583	0.102031	0.306808
0	H	0.434689	0.420084	0.448066
0	H	0.61672	0.0251578	0.448524
0	H	0.00927995	0.601493	0.452175
0	H	0.606554	0.611929	0.641736
0	H	0.424586	0.00688375	0.641256
0	H	0.0320888	0.430695	0.636398
0	H	0.104543	0.758952	0.787683
0	H	0.278999	0.358106	0.7927
0	H	0.67793	0.930414	0.783333
