#******************************************
#
# CIF file created by Zeo++
# Zeo++ is an open source package to
# analyze microporous materials
#
#*******************************************

_cell_length_a		13.1888(0)
_cell_length_b		12.9987(0)
_cell_length_c		15.9138(0)
_cell_angle_alpha		90(0)
_cell_angle_beta		90(0)
_cell_angle_gamma		119.743(0)

_symmetry_space_group_name_H-M		'P1'
_symmetry_Int_Tables_number		1
_symmetry_cell_setting		Monoclinic

loop_
_symmetry_equiv_pos_as_xyz
'+x,+y,+z'

loop_
_atom_site_label
_atom_site_type_symbol
_atom_site_fract_x
_atom_site_fract_y
_atom_site_fract_z
0	O	0.248083	0.75624	0.251411
0	O	0.284562	0.525804	0.586457
0	O	0.509994	0.778349	0.920864
0	O	0.77325	0.284805	0.754793
0	O	0.742471	0.522088	0.089551
0	O	0.517945	0.263051	0.414728
0	O	0.0719011	0.696916	0.185604
0	O	0.346193	0.410012	0.518559
0	O	0.623277	0.958334	0.8559
0	O	0.949639	0.343926	0.689312
0	O	0.678535	0.635036	0.0202556
0	O	0.402298	0.083497	0.350008
0	O	0.0300602	0.567709	0.0536506
0	O	0.470541	0.497835	0.385482
0	O	0.539211	0.000998412	0.722984
0	O	0.993001	0.47379	0.557777
0	O	0.552624	0.543001	0.888475
0	O	0.485441	0.0405208	0.216447
0	O	0.322291	0.722703	0.13029
0	O	0.316542	0.636337	0.466684
0	O	0.402646	0.703833	0.799899
0	O	0.700685	0.320769	0.633728
0	O	0.70852	0.407885	0.971687
0	O	0.622793	0.338072	0.292763
0	O	0.224257	0.49181	0.974699
0	O	0.531399	0.759224	0.300877
0	O	0.272754	0.808938	0.648282
0	O	0.798513	0.546964	0.474362
0	O	0.49304	0.281403	0.806487
0	O	0.752635	0.231628	0.141951
0	O	0.390056	0.483602	0.0135314
0	O	0.550281	0.939677	0.34133
0	O	0.099051	0.639329	0.682169
0	O	0.632635	0.556455	0.510787
0	O	0.473924	0.101319	0.848127
0	O	0.926302	0.400414	0.177459
0	O	0.132892	0.868997	0.924074
0	O	0.160065	0.307061	0.261509
0	O	0.737319	0.896593	0.609245
0	O	0.886306	0.170748	0.42664
0	O	0.861302	0.731027	0.761101
0	O	0.283657	0.140255	0.107162
0	O	0.981789	0.694528	0.93063
0	O	0.32577	0.311743	0.266038
0	O	0.705511	0.0416712	0.586142
0	O	0.0405464	0.342633	0.436086
0	O	0.695628	0.726283	0.766655
0	O	0.31929	0.99889	0.0791723
0	N	0.0860767	0.763199	0.938008
0	N	0.264872	0.357293	0.273686
0	N	0.674641	0.940532	0.608207
0	N	0.935574	0.276301	0.441903
0	N	0.756822	0.681068	0.774541
0	N	0.348393	0.0988197	0.103167
0	C	0.277703	0.793067	0.166083
0	C	0.247763	0.520327	0.501372
0	C	0.516774	0.749557	0.835274
0	C	0.744033	0.249112	0.669262
0	C	0.777712	0.525211	0.00443865
0	C	0.509537	0.292274	0.329389
0	H	0.351585	0.886002	0.165882
0	H	0.155704	0.501884	0.501887
0	H	0.536033	0.675199	0.834156
0	H	0.66965	0.156443	0.668646
0	H	0.869847	0.543792	0.00425941
0	H	0.490034	0.366441	0.329321
0	C	0.159882	0.758504	0.122582
0	C	0.28289	0.436667	0.456587
0	C	0.598484	0.869993	0.792345
0	C	0.861844	0.282913	0.626071
0	C	0.74134	0.607131	0.958663
0	C	0.427038	0.171896	0.28654
0	H	0.150769	0.83406	0.0999239
0	H	0.208696	0.351605	0.434746
0	H	0.683055	0.881517	0.769781
0	H	0.870474	0.206983	0.603594
0	H	0.814934	0.691749	0.935631
0	H	0.342369	0.160631	0.264328
0	C	0.143804	0.665651	0.053967
0	C	0.372498	0.513528	0.387443
0	C	0.522251	0.885376	0.723996
0	C	0.879117	0.376082	0.557453
0	C	0.651066	0.52801	0.890627
0	C	0.502455	0.156172	0.217608
0	C	0.233613	0.625806	0.0806264
0	C	0.410613	0.643735	0.414629
0	C	0.394254	0.794347	0.75169
0	C	0.789196	0.416365	0.58313
0	C	0.613739	0.398657	0.919668
0	C	0.630655	0.246952	0.244803
0	H	0.188582	0.546449	0.122023
0	H	0.490574	0.678614	0.45418
0	H	0.361575	0.839617	0.794257
0	H	0.834143	0.496679	0.623577
0	H	0.534171	0.364594	0.959534
0	H	0.66303	0.201599	0.287604
0	C	0.302887	0.605494	0.0114283
0	C	0.425066	0.731249	0.344589
0	C	0.30553	0.726488	0.682062
0	C	0.719881	0.434632	0.51281
0	C	0.599063	0.309679	0.850738
0	C	0.719826	0.314301	0.175342
0	H	0.332464	0.671705	0.959265
0	H	0.35365	0.692873	0.296522
0	H	0.341889	0.698658	0.628855
0	H	0.690502	0.366696	0.461773
0	H	0.670678	0.347219	0.80275
0	H	0.684204	0.342407	0.121856
0	C	0.404984	0.593762	0.0469994
0	C	0.442386	0.849405	0.378476
0	C	0.19159	0.621333	0.714713
0	C	0.617323	0.44719	0.546311
0	C	0.581275	0.19188	0.885745
0	C	0.83354	0.418801	0.209002
0	H	0.491628	0.663748	0.0243012
0	H	0.373864	0.86942	0.357145
0	H	0.175171	0.534935	0.689309
0	H	0.53114	0.376637	0.523446
0	H	0.650003	0.171644	0.86541
0	H	0.851089	0.50576	0.183915
0	H	0.404643	0.587127	0.11602
0	H	0.45323	0.858902	0.447183
0	H	0.183267	0.617467	0.783678
0	H	0.616786	0.455592	0.61516
0	H	0.569585	0.182986	0.954441
0	H	0.840489	0.421925	0.278043
0	C	0.164365	0.715097	0.9639
0	C	0.322649	0.486069	0.297629
0	C	0.54924	0.862833	0.633864
0	C	0.859523	0.327275	0.467188
0	C	0.699825	0.553095	0.800505
0	C	0.474015	0.178283	0.127772
0	H	0.257629	0.786401	0.956218
0	H	0.258726	0.51828	0.288692
0	H	0.525284	0.767694	0.626672
0	H	0.765767	0.257877	0.458313
0	H	0.764008	0.521038	0.792147
0	H	0.496351	0.272969	0.120989
0	H	0.148295	0.640749	0.919966
0	H	0.397437	0.537922	0.25316
0	H	0.49254	0.87999	0.589905
0	H	0.878388	0.40279	0.423542
0	H	0.624608	0.49955	0.756764
0	H	0.530819	0.162408	0.0830163
0	C	0.12621	0.718354	0.268893
0	C	0.322638	0.439988	0.602424
0	C	0.593555	0.901888	0.938895
0	C	0.895046	0.32248	0.772504
0	C	0.70239	0.606582	0.104538
0	C	0.432761	0.140137	0.432909
0	C	0.0741338	0.603121	0.316635
0	C	0.434545	0.501317	0.652016
0	C	0.531177	0.951766	0.989227
0	C	0.947081	0.437664	0.820254
0	C	0.590377	0.544126	0.153914
0	C	0.493211	0.0882741	0.483391
0	H	0.0573369	0.528069	0.275413
0	H	0.509271	0.559985	0.611821
0	H	0.474804	0.971501	0.94911
0	H	0.965345	0.512991	0.778848
0	H	0.51581	0.485883	0.113487
0	H	0.5515	0.070749	0.443689
0	H	0.991109	0.582225	0.346741
0	H	0.454768	0.437912	0.682825
0	H	0.592005	0.0332333	0.0227907
0	H	0.0292788	0.457834	0.85149
0	H	0.569568	0.606573	0.185604
0	H	0.430962	0.0049153	0.514291
0	H	0.133698	0.607403	0.366894
0	H	0.42802	0.556425	0.702181
0	H	0.474309	0.887552	0.0371869
0	H	0.886957	0.434111	0.869791
0	H	0.597246	0.488202	0.203311
0	H	0.547319	0.149914	0.533435
0	C	0.120893	0.820458	0.310716
0	C	0.222071	0.330684	0.641647
0	C	0.701494	0.90795	0.977568
0	C	0.899903	0.220103	0.814266
0	C	0.801927	0.717078	0.143415
0	C	0.325902	0.136348	0.471673
0	H	0.0965137	0.868631	0.265798
0	H	0.157744	0.274425	0.594258
0	H	0.770653	0.931618	0.930581
0	H	0.92358	0.171451	0.769234
0	H	0.862166	0.776991	0.0954305
0	H	0.259918	0.12163	0.423858
0	H	0.206877	0.885757	0.336553
0	H	0.174593	0.355151	0.687035
0	H	0.68183	0.820931	0.00330619
0	H	0.81392	0.15524	0.840286
0	H	0.854419	0.694166	0.185248
0	H	0.348676	0.221461	0.50215
0	H	0.057715	0.791197	0.362358
0	H	0.251507	0.276085	0.674509
0	H	0.738151	0.973091	0.028448
0	H	0.963562	0.249242	0.865637
0	H	0.770769	0.767203	0.180158
0	H	0.284018	0.066205	0.518794
0	C	0.278099	0.417753	0.969841
0	C	0.609692	0.886567	0.296209
0	C	0.147007	0.752316	0.63729
0	C	0.745224	0.621372	0.467754
0	C	0.414528	0.154089	0.802578
0	C	0.878529	0.287935	0.131991
0	C	0.202256	0.304801	0.0179887
0	C	0.721131	0.916824	0.34268
0	C	0.105639	0.828443	0.680424
0	C	0.82031	0.735052	0.515392
0	C	0.303401	0.125048	0.848984
0	C	0.918711	0.210845	0.175162
0	H	0.169302	0.322203	0.0765574
0	H	0.704674	0.858026	0.39669
0	H	0.139246	0.851172	0.744923
0	H	0.859931	0.719812	0.571342
0	H	0.321037	0.177881	0.906453
0	H	0.880358	0.183764	0.238102
0	H	0.251447	0.260083	0.0359019
0	H	0.762832	0.00798217	0.367472
0	H	0.00963613	0.782037	0.685108
0	H	0.768326	0.774849	0.537795
0	H	0.256116	0.0310931	0.868254
0	H	0.0141987	0.258599	0.183674
0	H	0.126223	0.241604	0.981518
0	H	0.785302	0.91058	0.302504
0	H	0.133459	0.911815	0.646782
0	H	0.891546	0.801631	0.476926
0	H	0.243659	0.140874	0.810426
0	H	0.895189	0.130007	0.13942
0	C	0.302256	0.405385	0.878633
0	C	0.621665	0.923377	0.205048
0	C	0.118743	0.727588	0.544866
0	C	0.72264	0.632565	0.376003
0	C	0.401852	0.115891	0.711703
0	C	0.90855	0.31393	0.0398954
0	H	0.336474	0.490809	0.845426
0	H	0.535783	0.88104	0.1736
0	H	0.169909	0.69088	0.515906
0	H	0.690777	0.547202	0.343154
0	H	0.48728	0.158685	0.679631
0	H	0.861305	0.355347	0.0113992
0	H	0.223905	0.340638	0.845201
0	H	0.677203	0.89805	0.169883
0	H	0.138141	0.807767	0.509825
0	H	0.801218	0.698154	0.343226
0	H	0.344758	0.139179	0.676593
0	H	0.88527	0.23327	0.00415038
0	H	0.369541	0.379004	0.871641
0	H	0.658019	0.0199133	0.19808
0	H	0.0260062	0.661423	0.534486
0	H	0.654299	0.65725	0.367489
0	H	0.366677	0.0193659	0.705462
0	H	0.00244182	0.37648	0.0302297
0	H	0.00360331	0.533003	0.112812
0	H	0.503258	0.50069	0.444624
0	H	0.528469	0.0270562	0.781816
0	H	0.0201464	0.50655	0.617308
0	H	0.520013	0.540446	0.947592
0	H	0.497138	0.014691	0.275126
