#******************************************
#
# CIF file created by Zeo++
# Zeo++ is an open source package to
# analyze microporous materials
#
#*******************************************

_cell_length_a		20.8178(0)
_cell_length_b		20.7642(0)
_cell_length_c		10.7647(0)
_cell_angle_alpha		90(0)
_cell_angle_beta		90(0)
_cell_angle_gamma		119.889(0)

_symmetry_space_group_name_H-M		'P1'
_symmetry_Int_Tables_number		1
_symmetry_cell_setting		Monoclinic

loop_
_symmetry_equiv_pos_as_xyz
'+x,+y,+z'

loop_
_atom_site_label
_atom_site_type_symbol
_atom_site_fract_x
_atom_site_fract_y
_atom_site_fract_z
0	O	0.371545	0.0579502	0.991008
0	O	0.00275021	0.346436	0.991276
0	O	0.714396	0.689382	0.989625
0	O	0.687325	0.00489428	0.019698
0	O	0.0558059	0.716484	0.019776
0	O	0.344403	0.373226	0.0187272
0	O	0.591628	0.118722	0.0213908
0	O	0.943723	0.508208	0.0202314
0	O	0.554513	0.468801	0.0202918
0	O	0.467455	0.94481	0.990538
0	O	0.114701	0.554814	0.990691
0	O	0.503554	0.594013	0.989053
0	N	0.244435	0.985335	0.978616
0	N	0.0752876	0.291479	0.976187
0	N	0.768154	0.81661	0.975859
0	N	0.814405	0.0774932	0.0320998
0	N	0.983446	0.771598	0.0348669
0	N	0.290696	0.246058	0.0337382
0	N	0.188546	0.852462	0.978046
0	N	0.207824	0.368356	0.974167
0	N	0.69105	0.872371	0.975554
0	N	0.870304	0.21037	0.0332391
0	N	0.850895	0.694935	0.0370549
0	N	0.367864	0.190351	0.0348465
0	H	0.141168	0.799635	0.982909
0	H	0.260657	0.373824	0.979332
0	H	0.685427	0.919784	0.980268
0	H	0.917672	0.26319	0.0281801
0	H	0.79811	0.689474	0.0307527
0	H	0.373483	0.142935	0.0304641
0	O	0.117784	0.908508	0.990702
0	O	0.152613	0.24172	0.987502
0	O	0.817577	0.943584	0.985512
0	O	0.941075	0.154359	0.0205801
0	O	0.906318	0.821566	0.0228463
0	O	0.241324	0.119111	0.025269
0	N	0.324382	0.932621	0.973666
0	N	0.127569	0.424195	0.973001
0	N	0.635892	0.736204	0.972301
0	N	0.734486	0.130237	0.0377312
0	N	0.930915	0.638856	0.0379211
0	N	0.422948	0.326471	0.0368918
0	C	0.260947	0.855068	0.965691
0	C	0.204916	0.438226	0.962585
0	C	0.621438	0.799657	0.965183
0	C	0.79791	0.207821	0.0456999
0	C	0.853641	0.624992	0.0486928
0	C	0.43751	0.263104	0.0445259
0	H	0.266007	0.82438	0.0501056
0	H	0.23651	0.474027	0.0464843
0	H	0.586766	0.794855	0.0508717
0	H	0.792786	0.238494	0.961452
0	H	0.82186	0.589125	0.964987
0	H	0.472056	0.267574	0.958777
0	N	0.488297	0.0809422	0.145419
0	N	0.980424	0.441584	0.144386
0	N	0.620872	0.572369	0.143881
0	N	0.570445	0.982127	0.865992
0	N	0.0781848	0.621494	0.8663
0	N	0.438333	0.490514	0.864476
0	C	0.379673	0.994818	0.274597
0	C	0.0661613	0.418324	0.273425
0	C	0.643692	0.681093	0.273673
0	C	0.678849	0.0679213	0.736324
0	C	0.992273	0.644451	0.737196
0	C	0.416218	0.381826	0.735188
0	C	0.263878	0.817263	0.847021
0	C	0.24148	0.478851	0.84332
0	C	0.579368	0.796171	0.848059
0	C	0.795158	0.24555	0.164664
0	C	0.817242	0.584599	0.168227
0	C	0.479851	0.266968	0.161534
0	C	0.265558	0.750171	0.858099
0	C	0.307384	0.548418	0.852854
0	C	0.510594	0.793842	0.861642
0	C	0.794005	0.312938	0.154119
0	C	0.751242	0.515072	0.159199
0	C	0.548932	0.269954	0.148184
0	C	0.179046	0.913946	0.98362
0	C	0.146682	0.297417	0.980464
0	C	0.761921	0.882064	0.980089
0	C	0.879796	0.148885	0.0274979
0	C	0.912127	0.765784	0.0303026
0	C	0.296968	0.180625	0.0301779
0	C	0.316387	0.994784	0.983794
0	C	0.0656951	0.354091	0.982837
0	C	0.705952	0.744425	0.982075
0	C	0.742458	0.0680729	0.0271275
0	C	0.992889	0.708893	0.0282094
0	C	0.352894	0.318245	0.0269484
0	N	0.503742	0.0687735	0.371298
0	N	0.992415	0.469029	0.370263
0	N	0.59495	0.557026	0.370363
0	N	0.554593	0.993882	0.640167
0	N	0.0662588	0.593956	0.640381
0	N	0.466958	0.506289	0.638705
0	H	0.476536	0.0345314	0.448156
0	H	0.026607	0.475951	0.447131
0	H	0.588425	0.584352	0.447681
0	H	0.581695	0.0279704	0.563113
0	H	0.0321277	0.587081	0.563431
0	H	0.47447	0.478812	0.562595
0	N	0.606475	0.11216	0.230623
0	N	0.949181	0.528909	0.22965
0	N	0.534319	0.454127	0.229814
0	N	0.452123	0.950815	0.781266
0	N	0.108757	0.533594	0.781436
0	N	0.526674	0.608648	0.78046
0	H	0.662724	0.133651	0.21786
0	H	0.928028	0.564168	0.216746
0	H	0.498906	0.397842	0.217071
0	H	0.395899	0.929425	0.794342
0	H	0.129685	0.498149	0.794507
0	H	0.562293	0.664842	0.793867
0	C	0.262947	0.844485	0.72711
0	C	0.214104	0.449595	0.723981
0	C	0.606301	0.797213	0.727113
0	C	0.795763	0.217892	0.28431
0	C	0.84493	0.613988	0.287375
0	C	0.452627	0.265478	0.282441
0	C	0.374488	0.924264	0.271454
0	C	0.136598	0.483304	0.269718
0	C	0.578239	0.685799	0.270772
0	C	0.684078	0.138491	0.739648
0	C	0.921892	0.579413	0.741002
0	C	0.481268	0.376387	0.738253
0	O	0.617326	0.0850254	0.432232
0	O	0.975483	0.566149	0.431713
0	O	0.497663	0.443564	0.432121
0	O	0.440994	0.977629	0.579511
0	O	0.0827808	0.496498	0.579344
0	O	0.566648	0.619163	0.58031
0	C	0.561759	0.103732	0.124835
0	C	0.95816	0.492907	0.123854
0	C	0.570049	0.498794	0.123641
0	C	0.497036	0.959475	0.886874
0	C	0.100165	0.569979	0.887044
0	C	0.48917	0.563954	0.885743
0	C	0.263023	0.709969	0.752042
0	C	0.346747	0.585453	0.745877
0	C	0.471643	0.795655	0.756925
0	C	0.796576	0.352905	0.260499
0	C	0.712056	0.47821	0.266411
0	C	0.587772	0.268037	0.253054
0	H	0.263581	0.657929	0.761602
0	H	0.397804	0.638774	0.754374
0	H	0.418933	0.794344	0.768481
0	H	0.796451	0.405179	0.251388
0	H	0.660724	0.425098	0.258239
0	H	0.640755	0.269899	0.241623
0	C	0.313701	0.998204	0.285421
0	C	0.0625109	0.348664	0.28405
0	C	0.712661	0.747363	0.285237
0	C	0.744768	0.0644668	0.725234
0	C	0.995786	0.714045	0.726441
0	C	0.34691	0.315891	0.724249
0	C	0.244793	0.932729	0.291666
0	C	0.127621	0.344456	0.289412
0	C	0.715704	0.816248	0.292304
0	C	0.813706	0.129915	0.719061
0	C	0.930613	0.718136	0.721233
0	C	0.343139	0.246657	0.717719
0	H	0.194469	0.936367	0.298556
0	H	0.123698	0.29023	0.2962
0	H	0.769376	0.866796	0.299723
0	H	0.863992	0.126234	0.711893
0	H	0.934425	0.772302	0.714235
0	H	0.289219	0.196396	0.710684
0	C	0.453124	0.0668351	0.271168
0	C	0.994441	0.42032	0.270087
0	C	0.64269	0.607695	0.269481
0	C	0.605381	0.995947	0.740072
0	C	0.0640717	0.642604	0.740535
0	C	0.41787	0.455565	0.738447
0	H	0.444901	0.116494	0.290708
0	H	0.944879	0.362532	0.289322
0	H	0.70065	0.616202	0.28763
0	H	0.613486	0.946206	0.720668
0	H	0.11356	0.700431	0.721262
0	H	0.360336	0.447579	0.718089
0	C	0.305113	0.859362	0.278901
0	C	0.201151	0.478051	0.276209
0	C	0.582329	0.755178	0.279109
0	C	0.753488	0.203365	0.732422
0	C	0.857269	0.584559	0.734797
0	C	0.476449	0.306659	0.730348
0	H	0.301944	0.805514	0.278442
0	H	0.25495	0.528426	0.275169
0	H	0.531581	0.757945	0.278907
0	H	0.756713	0.257238	0.73322
0	H	0.803509	0.53413	0.735978
0	H	0.526901	0.303342	0.730382
0	C	0.265185	0.916588	0.704852
0	C	0.142321	0.379483	0.703305
0	C	0.675899	0.795197	0.702344
0	C	0.79329	0.14564	0.305954
0	C	0.91665	0.684227	0.307579
0	C	0.382904	0.267315	0.306857
0	H	0.261691	0.926906	0.605261
0	H	0.131127	0.3655	0.60387
0	H	0.68944	0.800126	0.6025
0	H	0.797236	0.135264	0.405358
0	H	0.928004	0.698335	0.406914
0	H	0.369686	0.263236	0.406758
0	H	0.317551	0.964258	0.736803
0	H	0.0948165	0.38402	0.737049
0	H	0.670954	0.742057	0.731338
0	H	0.74068	0.0981326	0.274453
0	H	0.964144	0.679821	0.273487
0	H	0.387386	0.319976	0.276209
0	H	0.219642	0.919459	0.750831
0	H	0.140465	0.331284	0.748814
0	H	0.724375	0.839938	0.749334
0	H	0.838499	0.142574	0.259124
0	H	0.918251	0.732296	0.262087
0	H	0.334418	0.221957	0.26089
0	C	0.269265	0.718878	0.981365
0	C	0.337617	0.586307	0.974618
0	C	0.476852	0.790228	0.98602
0	C	0.790978	0.344686	0.0309445
0	C	0.720908	0.476891	0.0376543
0	C	0.583491	0.274683	0.0241629
0	H	0.288972	0.759985	0.057149
0	H	0.333079	0.637134	0.981466
0	H	0.499312	0.770967	0.0608231
0	H	0.767116	0.302846	0.956602
0	H	0.725445	0.426003	0.0313518
0	H	0.557886	0.289292	0.947769
0	H	0.306223	0.694762	0.978527
0	H	0.396842	0.603621	0.985133
0	H	0.416408	0.753064	0.984812
0	H	0.758182	0.373318	0.0351543
0	H	0.661687	0.459529	0.0269579
0	H	0.642946	0.316169	0.0245486
0	H	0.214056	0.673108	0.00905163
0	H	0.309043	0.551578	0.0560699
0	H	0.486163	0.845562	0.0137513
0	H	0.847075	0.387115	0.000246716
0	H	0.749459	0.511394	0.955955
0	H	0.579347	0.221001	0.999406
0	C	0.259434	0.735788	0.633431
0	C	0.321334	0.554615	0.628018
0	C	0.499849	0.799499	0.637313
0	C	0.799651	0.326545	0.378916
0	C	0.738066	0.50895	0.384154
0	C	0.55914	0.263429	0.372517
0	C	0.260631	0.803507	0.621933
0	C	0.254451	0.487465	0.618043
0	C	0.56654	0.799178	0.623414
0	C	0.798014	0.258601	0.389807
0	C	0.804991	0.576095	0.393591
0	C	0.492201	0.26331	0.386211
0	H	0.260827	0.825555	0.529737
0	H	0.232628	0.464557	0.526303
0	H	0.587655	0.799487	0.530449
0	H	0.797433	0.23614	0.481803
0	H	0.827201	0.59899	0.485164
0	H	0.470818	0.262597	0.479121
0	C	0.239884	0.863049	0.289511
0	C	0.197225	0.408848	0.28648
0	C	0.650831	0.820708	0.290294
0	C	0.818676	0.199617	0.721633
0	C	0.861051	0.653688	0.724483
0	C	0.407618	0.241477	0.719724
0	C	0.441084	0.915228	0.260762
0	C	0.145855	0.559176	0.258975
0	C	0.502969	0.618936	0.259507
0	C	0.617499	0.147565	0.750221
0	C	0.912726	0.50356	0.751389
0	C	0.556894	0.44279	0.749155
0	H	0.479755	0.951484	0.188253
0	H	0.109691	0.561933	0.186599
0	H	0.50047	0.580509	0.186239
0	H	0.578926	0.111541	0.823029
0	H	0.948621	0.500676	0.824148
0	H	0.559705	0.481883	0.821392
0	H	0.427011	0.858575	0.234555
0	H	0.202342	0.601327	0.23232
0	H	0.460416	0.633032	0.233719
0	H	0.631585	0.204304	0.775825
0	H	0.856145	0.461247	0.777228
0	H	0.59894	0.428197	0.776031
0	H	0.471177	0.927575	0.349449
0	H	0.133801	0.57739	0.347508
0	H	0.485227	0.588303	0.347717
0	H	0.587295	0.134923	0.661611
0	H	0.925197	0.485677	0.662884
0	H	0.575048	0.472691	0.660254
0	C	0.576763	0.0869127	0.350891
0	C	0.974	0.523952	0.350075
0	C	0.539686	0.483996	0.350329
0	C	0.481626	0.975826	0.660821
0	C	0.0842745	0.53875	0.660852
0	C	0.522841	0.578907	0.660401
0	C	0.313242	0.0698603	0.290631
0	C	0.990886	0.27697	0.289217
0	C	0.784705	0.74808	0.290211
0	C	0.745125	0.992762	0.719619
0	C	0.0673698	0.785777	0.720703
0	C	0.275215	0.315905	0.719313
0	H	0.368078	0.119417	0.275782
0	H	0.9415	0.283067	0.27777
0	H	0.779589	0.693177	0.274699
0	H	0.690352	0.943251	0.735193
0	H	0.116771	0.779845	0.733459
0	H	0.280709	0.370839	0.736259
0	H	0.293303	0.0769156	0.381565
0	H	0.984538	0.248653	0.378621
0	H	0.811596	0.767759	0.381239
0	H	0.764513	0.985583	0.628242
0	H	0.0738604	0.813374	0.630505
0	H	0.248717	0.29723	0.627774
0	H	0.27564	0.0718273	0.220254
0	H	0.98808	0.23821	0.216374
0	H	0.824096	0.78613	0.220188
0	H	0.783087	0.990838	0.789293
0	H	0.0699573	0.825036	0.792382
0	H	0.235345	0.277433	0.788372
0	C	0.166454	0.793576	0.296881
0	C	0.266363	0.404173	0.292918
0	C	0.654465	0.89417	0.298045
0	C	0.892135	0.269074	0.714396
0	C	0.791854	0.658256	0.718213
0	C	0.40323	0.167653	0.712545
0	H	0.166645	0.753112	0.362542
0	H	0.309028	0.447954	0.351467
0	H	0.609172	0.892071	0.353534
0	H	0.892259	0.309047	0.647261
0	H	0.748696	0.6137	0.661485
0	H	0.447026	0.168729	0.654111
0	H	0.149548	0.765832	0.205641
0	H	0.290948	0.409519	0.199901
0	H	0.651321	0.914662	0.204834
0	H	0.908503	0.297424	0.805189
0	H	0.768001	0.654211	0.811507
0	H	0.408435	0.14823	0.805524
0	H	0.121726	0.803769	0.326325
0	H	0.256755	0.350844	0.330434
0	H	0.706493	0.937378	0.339453
0	H	0.937056	0.258749	0.686803
0	H	0.801132	0.711034	0.678667
0	H	0.350145	0.124158	0.674725
0	C	0.25325	0.691017	0.521043
0	C	0.365589	0.592215	0.514796
0	C	0.459941	0.805092	0.52639
0	C	0.805692	0.370933	0.491752
0	C	0.694588	0.471077	0.497868
0	C	0.598776	0.257536	0.48359
0	H	0.278469	0.725608	0.438574
0	H	0.330915	0.580365	0.431684
0	H	0.467182	0.778204	0.444114
0	H	0.781253	0.336095	0.574272
0	H	0.729768	0.483828	0.580586
0	H	0.592105	0.285092	0.56548
0	H	0.194474	0.652468	0.49905
0	H	0.405525	0.573112	0.495862
0	H	0.480697	0.863875	0.502348
0	H	0.864415	0.410159	0.513101
0	H	0.653761	0.48897	0.517336
0	H	0.577187	0.198711	0.508309
0	H	0.278847	0.65624	0.534772
0	H	0.398557	0.65287	0.525864
0	H	0.400134	0.780733	0.543049
0	H	0.779161	0.404927	0.479023
0	H	0.66266	0.410338	0.487227
0	H	0.658462	0.281005	0.46687
0	H	0.37647	0.937811	0.993161
0	H	0.122255	0.471029	0.993696
0	H	0.589199	0.684022	0.992216
0	H	0.682373	0.125081	0.0186963
0	H	0.936106	0.591936	0.0174036
0	H	0.469598	0.378713	0.0173421
0	H	0.238163	0.0326199	0.990369
0	H	0.0281959	0.237929	0.987336
0	H	0.821696	0.823158	0.987517
0	H	0.820648	0.0301936	0.0202237
0	H	0.0306117	0.825106	0.02383
0	H	0.237161	0.239489	0.0219125
0	H	0.452517	0.0678684	0.0693326
0	H	0.993947	0.419058	0.0684288
0	H	0.643734	0.608041	0.0676683
0	H	0.606368	0.995259	0.941893
0	H	0.0647803	0.644172	0.942196
0	H	0.414642	0.454594	0.940226
