#******************************************
#
# CIF file created by Zeo++
# Zeo++ is an open source package to
# analyze microporous materials
#
#*******************************************

_cell_length_a		19.0895(0)
_cell_length_b		11.4348(0)
_cell_length_c		18.9042(0)
_cell_angle_alpha		90(0)
_cell_angle_beta		68.3085(0)
_cell_angle_gamma		90(0)

_symmetry_space_group_name_H-M		'P1'
_symmetry_Int_Tables_number		1
_symmetry_cell_setting		Monoclinic

loop_
_symmetry_equiv_pos_as_xyz
'+x,+y,+z'

loop_
_atom_site_label
_atom_site_type_symbol
_atom_site_fract_x
_atom_site_fract_y
_atom_site_fract_z
0	N	0.469709	0.592263	0.231055
0	N	0.190799	0.604639	0.264763
0	N	0.981181	0.405132	0.759301
0	N	0.259444	0.392759	0.724935
0	N	0.924865	0.148456	0.249053
0	N	0.714544	0.118326	0.245243
0	N	0.526062	0.847647	0.741531
0	N	0.736154	0.879986	0.74543
0	N	0.333728	0.116503	0.141259
0	N	0.315013	0.113997	0.361646
0	N	0.116977	0.882064	0.8494
0	N	0.13572	0.883331	0.628941
0	N	0.750834	0.609812	0.14292
0	N	0.784008	0.649816	0.341791
0	N	0.699989	0.388126	0.847819
0	N	0.667262	0.347408	0.648804
0	B	0.485068	0.51364	0.170837
0	B	0.185677	0.517345	0.318334
0	B	0.966439	0.483333	0.819737
0	B	0.264574	0.479168	0.670862
0	B	0.862397	0.125773	0.231563
0	B	0.774073	0.112151	0.269408
0	B	0.588193	0.871308	0.759373
0	B	0.676434	0.885817	0.721473
0	B	0.307463	0.122543	0.219147
0	B	0.340766	0.120099	0.2838
0	B	0.143494	0.876004	0.771462
0	B	0.110169	0.877736	0.706832
0	B	0.741902	0.626727	0.21758
0	B	0.792251	0.639511	0.266843
0	B	0.709434	0.370949	0.773079
0	B	0.65922	0.357966	0.723717
0	C	0.43704	0.550716	0.311554
0	C	0.22886	0.582593	0.181576
0	C	0.0131612	0.447307	0.678941
0	C	0.22146	0.415987	0.808018
0	C	0.926372	0.155558	0.32715
0	C	0.725128	0.133979	0.163539
0	C	0.525091	0.84052	0.663207
0	C	0.725905	0.864514	0.827056
0	C	0.362096	0.487539	0.32681
0	C	0.314337	0.571914	0.160008
0	C	0.0879904	0.511081	0.663293
0	C	0.135888	0.425059	0.829799
0	C	0.857798	0.223681	0.379577
0	C	0.781487	0.232543	0.127853
0	C	0.594038	0.772926	0.610993
0	C	0.669514	0.766167	0.863083
0	C	0.494018	0.470377	0.32745
0	C	0.196508	0.471188	0.159854
0	C	0.955604	0.527243	0.663736
0	C	0.253194	0.528808	0.828741
0	C	0.928837	0.0323894	0.358556
0	C	0.751775	0.0183011	0.120889
0	C	0.522471	0.96366	0.631837
0	C	0.699528	0.980427	0.869553
0	C	0.486225	0.719298	0.215807
0	C	0.157655	0.722066	0.291318
0	C	0.964564	0.278109	0.77428
0	C	0.292271	0.274927	0.699112
0	C	0.995223	0.170059	0.181889
0	C	0.637567	0.123288	0.305583
0	C	0.455638	0.824618	0.808316
0	C	0.812966	0.875193	0.684822
0	C	0.41306	0.78906	0.234457
0	C	0.216911	0.818647	0.261877
0	C	0.0376927	0.207974	0.754738
0	C	0.232804	0.178785	0.729123
0	C	0.0228083	0.29629	0.181981
0	C	0.619862	0.249822	0.33414
0	C	0.429585	0.697564	0.807961
0	C	0.830579	0.748727	0.656065
0	C	0.534132	0.766007	0.259254
0	C	0.0893239	0.744888	0.268892
0	C	0.916027	0.232178	0.731296
0	C	0.360555	0.252342	0.721679
0	C	0.0569387	0.0813909	0.178238
0	C	0.576559	0.075992	0.278437
0	C	0.393069	0.911328	0.811503
0	C	0.874215	0.922271	0.711713
0	C	0.276797	0.096907	0.106154
0	C	0.371697	0.0790406	0.394459
0	C	0.173687	0.901898	0.884784
0	C	0.0787581	0.917234	0.596259
0	C	0.680117	0.59628	0.127932
0	C	0.854217	0.646509	0.358423
0	C	0.770385	0.401914	0.863398
0	C	0.596881	0.350519	0.632507
0	C	0.281721	0.970799	0.0767198
0	C	0.363166	0.948431	0.414121
0	C	0.168188	0.0278567	0.914674
0	C	0.0870319	0.0475613	0.57581
0	C	0.668947	0.469527	0.108069
0	C	0.858252	0.532862	0.399991
0	C	0.781254	0.528771	0.883369
0	C	0.592711	0.463865	0.590642
0	C	0.285054	0.184649	0.0421446
0	C	0.366673	0.153308	0.463691
0	C	0.165514	0.813822	0.94859
0	C	0.083555	0.841898	0.527536
0	C	0.677319	0.680828	0.0659441
0	C	0.860713	0.753712	0.404501
0	C	0.772802	0.317423	0.925598
0	C	0.590073	0.243012	0.586879
0	C	0.414904	0.132854	0.0928487
0	C	0.234759	0.132612	0.411975
0	C	0.0357887	0.865312	0.897593
0	C	0.215904	0.86485	0.578473
0	C	0.825669	0.610702	0.0791565
0	C	0.709585	0.665166	0.405095
0	C	0.624872	0.387416	0.911202
0	C	0.741529	0.331859	0.585374
0	C	0.435426	0.262241	0.0948064
0	C	0.219427	0.263466	0.428372
0	C	0.0156141	0.735753	0.895719
0	C	0.231384	0.734	0.562224
0	C	0.859383	0.734052	0.0718784
0	C	0.680812	0.790275	0.403896
0	C	0.591133	0.264116	0.918304
0	C	0.770183	0.206644	0.586436
0	C	0.464889	0.0553743	0.120891
0	C	0.181514	0.0821636	0.375806
0	C	0.98577	0.942179	0.869223
0	C	0.269257	0.915794	0.614347
0	C	0.878348	0.520298	0.0934044
0	C	0.653196	0.575357	0.397338
0	C	0.572528	0.477847	0.896408
0	C	0.798129	0.421414	0.592977
0	H	0.426024	0.628508	0.350559
0	H	0.217377	0.658263	0.149476
0	H	0.0242145	0.369746	0.639743
0	H	0.233597	0.341451	0.840531
0	H	0.978871	0.203831	0.323717
0	H	0.669416	0.158638	0.160069
0	H	0.472865	0.791835	0.666255
0	H	0.781734	0.839808	0.830272
0	H	0.335458	0.46278	0.386892
0	H	0.344173	0.568952	0.0982156
0	H	0.114161	0.53622	0.60323
0	H	0.106215	0.428486	0.891598
0	H	0.854567	0.222767	0.438846
0	H	0.791056	0.243924	0.0675977
0	H	0.597621	0.773938	0.551616
0	H	0.660107	0.755181	0.923335
0	H	0.321732	0.54292	0.313324
0	H	0.337396	0.646167	0.181864
0	H	0.128761	0.455895	0.676284
0	H	0.113218	0.349925	0.808364
0	H	0.85918	0.315455	0.36128
0	H	0.761988	0.316309	0.15704
0	H	0.592876	0.681139	0.62917
0	H	0.688872	0.682206	0.834093
0	H	0.368598	0.406756	0.293571
0	H	0.330073	0.492353	0.18326
0	H	0.0814414	0.5917	0.696703
0	H	0.119514	0.503833	0.806308
0	H	0.804605	0.186198	0.379389
0	H	0.836653	0.213912	0.13191
0	H	0.646988	0.810814	0.61155
0	H	0.614279	0.784733	0.859127
0	H	0.502752	0.38864	0.294909
0	H	0.209727	0.392694	0.186112
0	H	0.946751	0.608747	0.696532
0	H	0.239137	0.60628	0.802181
0	H	0.879361	0.980413	0.361011
0	H	0.807806	0.994114	0.120093
0	H	0.571554	0.016134	0.63003
0	H	0.643276	0.00437065	0.87087
0	H	0.474746	0.447125	0.387789
0	H	0.219621	0.457655	0.0981699
0	H	0.974391	0.550912	0.603486
0	H	0.230333	0.543236	0.890333
0	H	0.92917	0.0360895	0.416248
0	H	0.755532	0.024675	0.0619423
0	H	0.522867	0.959913	0.573859
0	H	0.696387	0.974443	0.928317
0	H	0.549306	0.512752	0.311973
0	H	0.134958	0.475932	0.178274
0	H	0.900434	0.484368	0.679455
0	H	0.314799	0.525333	0.809958
0	H	0.978866	0.984042	0.32282
0	H	0.713711	0.946165	0.148569
0	H	0.472035	0.0115007	0.66719
0	H	0.737402	0.052516	0.841403
0	H	0.52004	0.72818	0.152883
0	H	0.137476	0.721132	0.355414
0	H	0.931241	0.268798	0.837264
0	H	0.312476	0.274947	0.635008
0	H	0.981096	0.157925	0.12941
0	H	0.638285	0.0667943	0.354133
0	H	0.469172	0.837751	0.861066
0	H	0.812052	0.931884	0.63642
0	H	0.387666	0.812759	0.295217
0	H	0.229082	0.841877	0.201932
0	H	0.0626389	0.184944	0.693844
0	H	0.220928	0.155848	0.789061
0	H	0.0406518	0.313225	0.229882
0	H	0.623238	0.309808	0.287721
0	H	0.412684	0.679443	0.759593
0	H	0.827743	0.688636	0.702274
0	H	0.422722	0.871399	0.201873
0	H	0.198858	0.899962	0.295165
0	H	0.0281302	0.125256	0.786903
0	H	0.250413	0.0972141	0.696011
0	H	0.0707827	0.315384	0.129515
0	H	0.563476	0.257824	0.378088
0	H	0.381381	0.677651	0.860044
0	H	0.886713	0.740908	0.611636
0	H	0.370082	0.739205	0.220634
0	H	0.270746	0.7932	0.266042
0	H	0.0810199	0.257197	0.768401
0	H	0.178849	0.204524	0.72529
0	H	0.977918	0.359166	0.186188
0	H	0.660681	0.28119	0.358234
0	H	0.474952	0.636004	0.804393
0	H	0.789348	0.717345	0.632506
0	H	0.587354	0.715998	0.244244
0	H	0.0462474	0.676854	0.291345
0	H	0.862751	0.282228	0.74701
0	H	0.403955	0.319713	0.698534
0	H	0.0360562	0.991502	0.180447
0	H	0.585348	0.98279	0.262899
0	H	0.412762	0.0018437	0.809722
0	H	0.865499	0.0154523	0.727393
0	H	0.505235	0.759315	0.321101
0	H	0.104647	0.746436	0.207056
0	H	0.944392	0.239453	0.669414
0	H	0.345274	0.252221	0.783515
0	H	0.0765047	0.0920251	0.22555
0	H	0.575138	0.123583	0.228461
0	H	0.37422	0.899801	0.76377
0	H	0.87585	0.874449	0.761536
0	H	0.549306	0.858489	0.245936
0	H	0.0631535	0.829251	0.291034
0	H	0.900921	0.139602	0.74432
0	H	0.386265	0.16739	0.700365
0	H	0.106106	0.0911006	0.125321
0	H	0.519806	0.0849192	0.322952
0	H	0.343643	0.900327	0.864049
0	H	0.930854	0.913433	0.666975
0	H	0.219463	0.109849	0.152384
0	H	0.429815	0.0936271	0.348955
0	H	0.231127	0.889624	0.83864
0	H	0.0207537	0.902918	0.642015
0	H	0.632125	0.619444	0.18324
0	H	0.90314	0.647862	0.302031
0	H	0.818689	0.378824	0.808307
0	H	0.548104	0.349611	0.688996
0	H	0.242348	0.956552	0.0476755
0	H	0.402056	0.92034	0.441142
0	H	0.207154	0.0420595	0.944208
0	H	0.0479256	0.0747807	0.54881
0	H	0.61169	0.456927	0.108214
0	H	0.910969	0.527681	0.410234
0	H	0.838409	0.541584	0.883461
0	H	0.539712	0.469061	0.580952
0	H	0.267616	0.907706	0.12423
0	H	0.374469	0.894391	0.36261
0	H	0.182461	0.0912477	0.867311
0	H	0.0758884	0.102454	0.626926
0	H	0.675721	0.408499	0.149931
0	H	0.855631	0.455223	0.366233
0	H	0.774553	0.589668	0.841378
0	H	0.595871	0.541772	0.623946
0	H	0.338502	0.948996	0.0368195
0	H	0.305496	0.926771	0.453026
0	H	0.111184	0.0491697	0.954267
0	H	0.144582	0.0690864	0.536553
0	H	0.708894	0.442789	0.0516767
0	H	0.811598	0.525362	0.455168
0	H	0.741038	0.555382	0.939686
0	H	0.638997	0.470725	0.535174
0	H	0.336681	0.170024	0.992182
0	H	0.313625	0.140246	0.512082
0	H	0.1136	0.827635	0.998377
0	H	0.136289	0.855082	0.478778
0	H	0.715268	0.652876	0.00870138
0	H	0.81848	0.752955	0.46257
0	H	0.734282	0.345149	0.982662
0	H	0.632179	0.243272	0.528738
0	H	0.23737	0.178417	0.0234273
0	H	0.412535	0.131577	0.483018
0	H	0.212923	0.820523	0.96771
0	H	0.0372868	0.86257	0.508592
0	H	0.620214	0.68471	0.0652065
0	H	0.916235	0.757305	0.40887
0	H	0.829674	0.31407	0.926969
0	H	0.534465	0.239411	0.582683
0	H	0.287227	0.274803	0.0610719
0	H	0.370955	0.246845	0.449794
0	H	0.16393	0.723687	0.929283
0	H	0.0797844	0.748523	0.54183
0	H	0.693415	0.769729	0.0755081
0	H	0.853157	0.835677	0.377353
0	H	0.757158	0.228366	0.91573
0	H	0.597587	0.16119	0.614234
0	H	0.423561	0.107252	0.0328745
0	H	0.223886	0.0855204	0.46764
0	H	0.0268518	0.891228	0.957607
0	H	0.226534	0.911678	0.522767
0	H	0.81768	0.587649	0.0248407
0	H	0.717007	0.650115	0.460636
0	H	0.632445	0.410541	0.965731
0	H	0.733967	0.347049	0.529923
0	H	0.435954	0.288283	0.150601
0	H	0.227658	0.313237	0.375985
0	H	0.0156943	0.70922	0.839778
0	H	0.223347	0.684361	0.614607
0	H	0.870736	0.758237	0.122928
0	H	0.664122	0.803478	0.354739
0	H	0.580304	0.239819	0.866971
0	H	0.787008	0.193235	0.63548
0	H	0.492156	0.280717	0.052555
0	H	0.161193	0.279056	0.46679
0	H	0.958706	0.717157	0.937582
0	H	0.28958	0.718491	0.523695
0	H	0.91301	0.738909	0.0227254
0	H	0.632149	0.808865	0.45615
0	H	0.53722	0.259402	0.967092
0	H	0.818711	0.187975	0.534087
0	H	0.395677	0.320766	0.0830952
0	H	0.256863	0.302416	0.45389
0	H	0.0551844	0.677627	0.908041
0	H	0.193921	0.694722	0.536874
0	H	0.821507	0.80067	0.064427
0	H	0.724485	0.855691	0.398893
0	H	0.628732	0.197468	0.92625
0	H	0.726409	0.1414	0.591515
0	H	0.463452	0.0847976	0.176987
0	H	0.18711	0.129556	0.323112
0	H	0.987427	0.912376	0.813125
0	H	0.264585	0.867805	0.666545
0	H	0.886699	0.538873	0.14698
0	H	0.646877	0.584693	0.341746
0	H	0.564733	0.459315	0.842548
0	H	0.804817	0.411722	0.648358
0	H	0.523621	0.0581189	0.081451
0	H	0.12257	0.0889075	0.414182
0	H	0.926983	0.939319	0.908497
0	H	0.328078	0.910497	0.575447
0	H	0.933717	0.520144	0.0471498
0	H	0.597503	0.586178	0.441956
0	H	0.51691	0.478	0.942249
0	H	0.85365	0.41075	0.548085
0	H	0.44604	0.963759	0.128198
0	H	0.193899	0.989749	0.359593
0	H	0.00441836	0.0338692	0.8618
0	H	0.256191	0.00781314	0.631308
0	H	0.854921	0.431867	0.0984034
0	H	0.672319	0.485632	0.399676
0	H	0.595914	0.566285	0.891664
0	H	0.778988	0.511205	0.590981
