#******************************************
#
# CIF file created by Zeo++
# Zeo++ is an open source package to
# analyze microporous materials
#
#*******************************************

_cell_length_a		15.0764(0)
_cell_length_b		15.0453(0)
_cell_length_c		15.3015(0)
_cell_angle_alpha		90(0)
_cell_angle_beta		90(0)
_cell_angle_gamma		119.925(0)

_symmetry_space_group_name_H-M		'P1'
_symmetry_Int_Tables_number		1
_symmetry_cell_setting		Monoclinic

loop_
_symmetry_equiv_pos_as_xyz
'+x,+y,+z'

loop_
_atom_site_label
_atom_site_type_symbol
_atom_site_fract_x
_atom_site_fract_y
_atom_site_fract_z
0	P	0.957744	0.284943	0.0186553
0	P	0.713839	0.674984	0.683798
0	P	0.326101	0.042924	0.349041
0	P	0.0402636	0.714787	0.516016
0	P	0.283045	0.325606	0.184421
0	P	0.672587	0.959009	0.851221
0	O	0.918394	0.186073	0.944997
0	O	0.812402	0.734332	0.610067
0	O	0.26653	0.0827466	0.275826
0	O	0.0796945	0.814015	0.442699
0	O	0.184689	0.266455	0.110468
0	O	0.732245	0.919267	0.778117
0	O	0.933448	0.370657	0.967112
0	O	0.629383	0.564274	0.632697
0	O	0.435873	0.0686133	0.296847
0	O	0.0654258	0.629716	0.464357
0	O	0.368202	0.435812	0.133051
0	O	0.562633	0.933261	0.79927
0	O	0.753487	0.179344	0.213082
0	O	0.82013	0.578793	0.879905
0	O	0.42497	0.245648	0.545261
0	O	0.243596	0.821107	0.711047
0	O	0.178133	0.423515	0.38048
0	O	0.572356	0.75539	0.0465208
0	O	0.918523	0.304332	0.224353
0	O	0.693824	0.61729	0.88983
0	O	0.385718	0.0805012	0.555452
0	O	0.0789994	0.695086	0.721933
0	O	0.303779	0.384126	0.390401
0	O	0.612606	0.920895	0.0569198
0	N	0.851293	0.218663	0.0899988
0	N	0.780598	0.636073	0.756037
0	N	0.365753	0.148328	0.421788
0	N	0.146264	0.78127	0.587679
0	N	0.217094	0.365655	0.256581
0	N	0.632928	0.853219	0.923468
0	C	0.914712	0.265832	0.808374
0	C	0.73314	0.65068	0.473467
0	C	0.348763	0.0864182	0.138531
0	C	0.0837416	0.734986	0.305818
0	C	0.264379	0.349896	0.97384
0	C	0.649461	0.91494	0.641005
0	C	0.615856	0.133479	0.682114
0	C	0.867649	0.486268	0.347037
0	C	0.514911	0.38675	0.0120025
0	C	0.382606	0.868478	0.179508
0	C	0.129682	0.514632	0.848144
0	C	0.482498	0.615075	0.514133
0	H	0.597977	0.085574	0.623834
0	H	0.915823	0.516902	0.289064
0	H	0.484475	0.405341	0.954401
0	H	0.400343	0.916495	0.121314
0	H	0.0811575	0.484039	0.79036
0	H	0.512745	0.596673	0.456307
0	C	0.960802	0.303877	0.724203
0	C	0.695311	0.65833	0.38904
0	C	0.340373	0.0394578	0.0546166
0	C	0.03756	0.697102	0.22165
0	C	0.302395	0.342178	0.889505
0	C	0.657729	0.961367	0.55688
0	C	0.0886491	0.326814	0.612917
0	C	0.672939	0.763094	0.277096
0	C	0.235238	0.909559	0.944596
0	C	0.909716	0.674538	0.110479
0	C	0.325499	0.237296	0.77807
0	C	0.762656	0.089937	0.445961
0	H	0.148512	0.311459	0.590873
0	H	0.688218	0.83827	0.25475
0	H	0.160072	0.849215	0.92311
0	H	0.850033	0.690167	0.0884484
0	H	0.310334	0.162079	0.755963
0	H	0.837769	0.150032	0.42411
0	C	0.932998	0.363913	0.670203
0	C	0.636086	0.570458	0.334874
0	C	0.427663	0.0666205	0.000310151
0	C	0.0650743	0.636878	0.1676
0	C	0.361927	0.429955	0.835319
0	C	0.570249	0.933713	0.502712
0	H	0.872146	0.377773	0.692263
0	H	0.622532	0.495808	0.35711
0	H	0.50223	0.128248	0.0216361
0	H	0.125845	0.622858	0.189585
0	H	0.375234	0.504609	0.857279
0	H	0.495704	0.872528	0.524526
0	C	0.0322615	0.198002	0.831013
0	C	0.800158	0.836048	0.495822
0	C	0.164092	0.968008	0.162372
0	C	0.965956	0.802532	0.328837
0	C	0.196871	0.164525	0.996234
0	C	0.834243	0.0334458	0.66433
0	H	0.0572099	0.157351	0.874695
0	H	0.840569	0.901784	0.539357
0	H	0.0988959	0.94318	0.206328
0	H	0.940801	0.842806	0.372752
0	H	0.156118	0.0987781	0.0396981
0	H	0.899507	0.0585745	0.708268
0	C	0.95554	0.219812	0.860631
0	C	0.778601	0.737591	0.525679
0	C	0.262548	0.0452408	0.191434
0	C	0.042747	0.780713	0.358246
0	C	0.218598	0.263041	0.026118
0	C	0.735869	0.956351	0.693663
0	C	0.0400914	0.285859	0.695159
0	C	0.713199	0.755614	0.359758
0	C	0.243191	0.959481	0.0262729
0	C	0.958341	0.715297	0.192731
0	C	0.284632	0.244866	0.860398
0	C	0.754887	0.040941	0.528079
0	C	0.830212	0.278875	0.842019
0	C	0.721238	0.553564	0.507315
0	C	0.446209	0.171523	0.171599
0	C	0.168377	0.722051	0.339297
0	C	0.276626	0.447137	0.00770769
0	C	0.552049	0.829985	0.674267
0	C	0.0727921	0.229848	0.749237
0	C	0.76862	0.844432	0.41381
0	C	0.15492	0.927257	0.080579
0	C	0.925555	0.771091	0.246981
0	C	0.228739	0.156074	0.914364
0	C	0.843272	0.0736171	0.582321
0	H	0.1324	0.215029	0.724911
0	H	0.783258	0.918755	0.389181
0	H	0.0804673	0.867801	0.0564331
0	H	0.865947	0.785983	0.222763
0	H	0.214052	0.0817021	0.889822
0	H	0.917695	0.132857	0.557914
0	C	0.710151	0.174666	0.721196
0	C	0.826304	0.539139	0.386614
0	C	0.461839	0.292164	0.0509492
0	C	0.288246	0.826771	0.218542
0	C	0.1711	0.461657	0.887416
0	C	0.535793	0.709538	0.553233
0	H	0.769221	0.161049	0.693863
0	H	0.839926	0.61224	0.360016
0	H	0.388823	0.233351	0.0241118
0	H	0.229004	0.840193	0.191333
0	H	0.157172	0.388459	0.860813
0	H	0.608594	0.768427	0.526107
0	C	0.98263	0.404403	0.592675
0	C	0.596075	0.579458	0.256991
0	C	0.41826	0.0154573	0.923507
0	C	0.015188	0.596328	0.0901862
0	C	0.402574	0.420892	0.757804
0	C	0.57952	0.983804	0.425343
0	H	0.962927	0.451862	0.552011
0	H	0.549058	0.512297	0.216258
0	H	0.485078	0.0344711	0.882783
0	H	0.0344454	0.548487	0.0495488
0	H	0.449911	0.488018	0.717142
0	H	0.512626	0.964249	0.384591
0	C	0.73291	0.235916	0.798406
0	C	0.764896	0.49978	0.463532
0	C	0.500709	0.268779	0.127564
0	C	0.265654	0.765253	0.295573
0	C	0.233012	0.501054	0.964099
0	C	0.497394	0.732695	0.630276
0	C	0.0613181	0.38534	0.563406
0	C	0.615033	0.677219	0.227529
0	C	0.320673	0.935954	0.895047
0	C	0.936704	0.615732	0.0609967
0	C	0.383827	0.323112	0.728565
0	C	0.677092	0.0628717	0.396389
0	H	0.0993795	0.418147	0.501124
0	H	0.582475	0.682514	0.165129
0	H	0.315134	0.89657	0.833375
0	H	0.898446	0.582881	0.998807
0	H	0.416775	0.317764	0.666383
0	H	0.682484	0.101508	0.334345
0	C	0.539307	0.15285	0.716568
0	C	0.848256	0.389876	0.380661
0	C	0.611491	0.462713	0.0455829
0	C	0.459373	0.849402	0.213874
0	C	0.149461	0.611152	0.881771
0	C	0.386176	0.53896	0.547999
0	H	0.466058	0.121387	0.682124
0	H	0.879483	0.348078	0.345614
0	H	0.653303	0.536234	0.0112635
0	H	0.532867	0.881528	0.179677
0	H	0.118101	0.652917	0.846877
0	H	0.344178	0.465555	0.513525
0	C	0.558581	0.210917	0.790679
0	C	0.790484	0.350524	0.454739
0	C	0.65104	0.442644	0.118727
0	C	0.440168	0.790805	0.287626
0	C	0.207775	0.650541	0.955591
0	C	0.347207	0.55873	0.621687
0	H	0.500603	0.226172	0.818004
0	H	0.775396	0.276993	0.481485
0	H	0.724944	0.500029	0.145243
0	H	0.498258	0.775595	0.314715
0	H	0.223201	0.724153	0.982371
0	H	0.273608	0.501147	0.64856
0	C	0.683134	0.111277	0.14525
0	C	0.88894	0.576793	0.812693
0	C	0.426006	0.316355	0.478292
0	C	0.313843	0.889884	0.643513
0	C	0.109717	0.42617	0.313217
0	C	0.571359	0.684798	0.979414
0	H	0.622122	0.13115	0.140778
0	H	0.87027	0.496131	0.809041
0	H	0.506486	0.377977	0.473581
0	H	0.375676	0.871143	0.639404
0	H	0.129276	0.507087	0.309308
0	H	0.490745	0.62364	0.974134
0	H	0.652651	0.0324249	0.170473
0	H	0.967351	0.626088	0.837953
0	H	0.377463	0.346132	0.504445
0	H	0.343122	0.968515	0.668814
0	H	0.0312252	0.377667	0.3386
0	H	0.61918	0.654325	0.00584911
0	C	0.765549	0.348319	0.956222
0	C	0.653631	0.419529	0.621494
0	C	0.581003	0.236393	0.285093
0	C	0.233407	0.652433	0.453044
0	C	0.345152	0.5813	0.121751
0	C	0.417716	0.765112	0.788136
0	H	0.781495	0.392008	0.0167682
0	H	0.61028	0.391558	0.682129
0	H	0.608752	0.22045	0.345622
0	H	0.217531	0.60844	0.513424
0	H	0.388879	0.609308	0.182198
0	H	0.390129	0.781037	0.848761
0	C	0.655364	0.252635	0.834063
0	C	0.748776	0.405422	0.498747
0	C	0.59569	0.345895	0.162327
0	C	0.343328	0.748558	0.330968
0	C	0.249545	0.595549	0.99935
0	C	0.402738	0.655419	0.66538
0	C	0.842209	0.33014	0.920317
0	C	0.670676	0.51419	0.585773
0	C	0.485772	0.159887	0.249847
0	C	0.156618	0.670661	0.417482
0	C	0.327419	0.48637	0.0861132
0	C	0.512645	0.841775	0.75254
0	C	0.850122	0.241911	0.178463
0	C	0.756947	0.611834	0.844457
0	C	0.390967	0.149053	0.510029
0	C	0.147244	0.757897	0.676154
0	C	0.240835	0.38987	0.345031
0	C	0.607096	0.852202	0.0115159
0	C	0.748409	0.133669	0.0621155
0	C	0.865954	0.6183	0.728922
0	C	0.3829	0.251465	0.394951
0	C	0.248965	0.866825	0.560082
0	C	0.13197	0.383851	0.229573
0	C	0.615574	0.750073	0.896388
0	H	0.754141	0.0655383	0.0416509
0	H	0.933566	0.691932	0.707826
0	H	0.308733	0.245315	0.3753
0	H	0.242736	0.934567	0.53924
0	H	0.0639588	0.310128	0.209009
0	H	0.689739	0.756021	0.877181
0	H	0.716908	0.156582	0.00645252
0	H	0.843392	0.563106	0.67385
0	H	0.436655	0.283702	0.339033
0	H	0.281103	0.844203	0.504703
0	H	0.154478	0.438628	0.17424
0	H	0.562327	0.718302	0.840092
0	C	0.674183	0.310274	0.913063
0	C	0.691746	0.366342	0.577898
0	C	0.634962	0.327193	0.24107
0	C	0.324702	0.690585	0.409743
0	C	0.307075	0.634613	0.078294
0	C	0.363888	0.674072	0.744405
0	H	0.613591	0.322691	0.938801
0	H	0.679756	0.293246	0.603308
0	H	0.708652	0.3874	0.26593
0	H	0.385307	0.678024	0.435231
0	H	0.31953	0.707885	0.10367
0	H	0.290552	0.613653	0.769662
