#******************************************
#
# CIF file created by Zeo++
# Zeo++ is an open source package to
# analyze microporous materials
#
#*******************************************

_cell_length_a		28.7638(0)
_cell_length_b		28.9094(0)
_cell_length_c		7.24542(0)
_cell_angle_alpha		90(0)
_cell_angle_beta		90(0)
_cell_angle_gamma		119.784(0)

_symmetry_space_group_name_H-M		'P1'
_symmetry_Int_Tables_number		1
_symmetry_cell_setting		Monoclinic

loop_
_symmetry_equiv_pos_as_xyz
'+x,+y,+z'

loop_
_atom_site_label
_atom_site_type_symbol
_atom_site_fract_x
_atom_site_fract_y
_atom_site_fract_z
0	O	0.184573	0.0943778	0.0164647
0	O	0.915936	0.0937462	0.0291291
0	O	0.910911	0.819655	0.0241358
0	O	0.822088	0.909752	0.974118
0	O	0.0907294	0.91064	0.973249
0	O	0.0968138	0.184374	0.972628
0	O	0.851529	0.425433	0.357258
0	O	0.580688	0.426711	0.353608
0	O	0.580376	0.153778	0.352379
0	O	0.489587	0.245905	0.305444
0	O	0.760726	0.243792	0.308402
0	O	0.761937	0.516447	0.308242
0	O	0.517584	0.758242	0.690095
0	O	0.246042	0.760775	0.689807
0	O	0.2456	0.487732	0.687875
0	O	0.155948	0.579148	0.637387
0	O	0.426235	0.577792	0.643985
0	O	0.4265	0.850276	0.644362
0	O	0.251926	0.0843181	0.897015
0	O	0.924868	0.169762	0.905018
0	O	0.834529	0.752892	0.90025
0	O	0.754983	0.919905	0.0954455
0	O	0.0820636	0.834658	0.0968863
0	O	0.173143	0.251431	0.0958152
0	O	0.918898	0.416089	0.23451
0	O	0.589957	0.503088	0.231565
0	O	0.503005	0.0872462	0.233608
0	O	0.42246	0.255774	0.427618
0	O	0.751531	0.167226	0.428031
0	O	0.838355	0.583751	0.430171
0	O	0.584887	0.748571	0.568567
0	O	0.255545	0.837486	0.570053
0	O	0.169115	0.4206	0.56593
0	O	0.0885545	0.58866	0.758913
0	O	0.417002	0.501395	0.766132
0	O	0.503827	0.916967	0.762972
0	N	0.331558	0.0915469	0.776901
0	N	0.916421	0.240261	0.777047
0	N	0.76359	0.674043	0.774073
0	N	0.67556	0.912702	0.217806
0	N	0.0909261	0.764258	0.223928
0	N	0.243989	0.330497	0.220852
0	N	0.998206	0.4238	0.110097
0	N	0.581863	0.574304	0.108363
0	N	0.430691	0.0086068	0.11308
0	N	0.343184	0.248426	0.55134
0	N	0.75942	0.0956896	0.548358
0	N	0.909495	0.663275	0.551935
0	N	0.664184	0.756003	0.445308
0	N	0.247791	0.908965	0.448387
0	N	0.0977884	0.341198	0.444113
0	N	0.00914581	0.581051	0.882046
0	N	0.425276	0.430263	0.889351
0	N	0.576128	0.995754	0.882593
0	N	0.327477	0.167628	0.925537
0	N	0.840046	0.159979	0.923572
0	N	0.843721	0.677937	0.925087
0	N	0.679426	0.83651	0.0694183
0	N	0.166801	0.844357	0.0748014
0	N	0.163653	0.326182	0.0697232
0	N	0.993839	0.500076	0.25616
0	N	0.505949	0.494808	0.259961
0	N	0.511213	0.0117385	0.258673
0	N	0.346996	0.172284	0.402088
0	N	0.835721	0.175799	0.400557
0	N	0.82898	0.658496	0.400875
0	N	0.660136	0.832281	0.592637
0	N	0.171465	0.829127	0.597513
0	N	0.178368	0.345761	0.59377
0	N	0.0134213	0.504892	0.73465
0	N	0.501025	0.509671	0.736931
0	N	0.495545	0.992436	0.736922
0	N	0.291919	0.255299	0.135594
0	N	0.752573	0.0364676	0.130033
0	N	0.967002	0.713461	0.137292
0	N	0.714626	0.748544	0.859609
0	N	0.253506	0.967481	0.864443
0	N	0.0402145	0.290355	0.859334
0	N	0.957606	0.587477	0.46494
0	N	0.418495	0.37216	0.470642
0	N	0.635584	0.0468375	0.462561
0	N	0.382072	0.0841185	0.194111
0	N	0.92289	0.299779	0.194786
0	N	0.705329	0.622272	0.191479
0	N	0.624288	0.9201	0.799729
0	N	0.0835002	0.705308	0.80125
0	N	0.301934	0.381707	0.803737
0	N	0.0494527	0.417064	0.528713
0	N	0.58795	0.632353	0.524397
0	N	0.371615	0.957403	0.530563
0	C	0.165788	0.130331	0.0825155
0	C	0.880178	0.038543	0.0883833
0	C	0.966025	0.83868	0.0873088
0	C	0.840923	0.873639	0.910344
0	C	0.126311	0.965469	0.909911
0	C	0.041719	0.1652	0.908955
0	C	0.832147	0.460896	0.4233
0	C	0.54485	0.371991	0.417448
0	C	0.635361	0.172331	0.416025
0	C	0.508662	0.20999	0.241654
0	C	0.796275	0.29844	0.243354
0	C	0.707066	0.497332	0.242114
0	C	0.498283	0.793991	0.753698
0	C	0.210178	0.705976	0.752938
0	C	0.30047	0.506835	0.753942
0	C	0.175223	0.543601	0.571327
0	C	0.462082	0.632366	0.578748
0	C	0.371576	0.831737	0.580058
0	C	0.237363	0.118945	0.979317
0	C	0.89036	0.12071	0.986852
0	C	0.88359	0.767294	0.98403
0	C	0.769389	0.885196	0.0128102
0	C	0.11632	0.883587	0.0138752
0	C	0.124063	0.236802	0.0118373
0	C	0.904119	0.4506	0.316462
0	C	0.555527	0.454322	0.315371
0	C	0.552368	0.101332	0.314336
0	C	0.436894	0.221145	0.344482
0	C	0.786017	0.21626	0.346059
0	C	0.789196	0.568946	0.34638
0	C	0.570253	0.783182	0.650557
0	C	0.220935	0.788471	0.651984
0	C	0.218334	0.435285	0.649121
0	C	0.103264	0.554125	0.67665
0	C	0.451352	0.550119	0.682042
0	C	0.454481	0.902768	0.681996
0	C	0.309411	0.118045	0.86694
0	C	0.890084	0.192165	0.868707
0	C	0.811765	0.695863	0.866856
0	C	0.697581	0.886178	0.12724
0	C	0.116944	0.812264	0.131519
0	C	0.195753	0.30848	0.128453
0	C	0.976134	0.450309	0.200332
0	C	0.555646	0.526287	0.200489
0	C	0.479404	0.0300298	0.202163
0	C	0.365091	0.221934	0.460049
0	C	0.785914	0.144053	0.458638
0	C	0.861066	0.640886	0.460618
0	C	0.642222	0.782568	0.535739
0	C	0.221268	0.860755	0.539122
0	C	0.146291	0.363481	0.53494
0	C	0.0312252	0.554574	0.791692
0	C	0.451382	0.478224	0.796882
0	C	0.527377	0.974222	0.793805
0	C	0.388355	0.112438	0.765422
0	C	0.89574	0.276297	0.766137
0	C	0.727775	0.617577	0.763305
0	C	0.618768	0.891877	0.229371
0	C	0.111728	0.728275	0.232682
0	C	0.27964	0.386978	0.231779
0	C	0.0549257	0.444617	0.0960543
0	C	0.561037	0.610194	0.096649
0	C	0.394489	0.952312	0.100045
0	C	0.286466	0.227759	0.5645
0	C	0.780369	0.0599626	0.56222
0	C	0.944376	0.719839	0.565108
0	C	0.720869	0.776686	0.431235
0	C	0.226915	0.944753	0.434154
0	C	0.0628323	0.284651	0.430682
0	C	0.952412	0.560067	0.896919
0	C	0.44601	0.394284	0.900256
0	C	0.612331	0.0520495	0.89527
0	C	0.405987	0.0751201	0.742694
0	C	0.933491	0.330856	0.743408
0	C	0.672834	0.600432	0.740813
0	C	0.601212	0.929265	0.251682
0	C	0.0741257	0.673611	0.253334
0	C	0.33459	0.404261	0.254981
0	C	0.0723186	0.407169	0.0712936
0	C	0.598679	0.664674	0.0713992
0	C	0.339809	0.93594	0.0742765
0	C	0.269222	0.265242	0.59133
0	C	0.742757	0.00544766	0.5872
0	C	0.999426	0.737881	0.590221
0	C	0.738077	0.739192	0.403777
0	C	0.26456	0.999227	0.408542
0	C	0.0077949	0.266702	0.405682
0	C	0.93491	0.597374	0.923285
0	C	0.408329	0.339808	0.925306
0	C	0.667052	0.0684667	0.920211
0	C	0.460393	0.0932659	0.718827
0	C	0.915504	0.367156	0.719563
0	C	0.636759	0.546386	0.716532
0	C	0.546835	0.91121	0.27573
0	C	0.0922771	0.637377	0.275317
0	C	0.370528	0.458319	0.279704
0	C	0.126556	0.425193	0.0436418
0	C	0.580584	0.700816	0.0456508
0	C	0.303285	0.882118	0.0478026
0	C	0.214968	0.247277	0.618159
0	C	0.760889	0.96937	0.614096
0	C	0.0346842	0.79203	0.616567
0	C	0.7923	0.757142	0.376159
0	C	0.246463	0.0353321	0.381632
0	C	0.972481	0.212575	0.37914
0	C	0.880674	0.579187	0.951689
0	C	0.426353	0.303585	0.950478
0	C	0.703583	0.122295	0.946573
0	C	0.497445	0.147996	0.717667
0	C	0.86054	0.349871	0.718048
0	C	0.654617	0.509257	0.714736
0	C	0.50974	0.856492	0.277511
0	C	0.147282	0.654861	0.276902
0	C	0.352525	0.495335	0.2811
0	C	0.163661	0.479911	0.0406839
0	C	0.525613	0.68349	0.0452076
0	C	0.320403	0.844402	0.0469304
0	C	0.177697	0.192605	0.618026
0	C	0.815901	0.986852	0.616365
0	C	0.0158992	0.82843	0.617622
0	C	0.829587	0.811814	0.376116
0	C	0.191469	0.0179239	0.379867
0	C	0.991182	0.176108	0.377659
0	C	0.843667	0.52444	0.953774
0	C	0.481312	0.320844	0.950535
0	C	0.686423	0.159976	0.948042
0	C	0.479675	0.184605	0.74184
0	C	0.823535	0.295891	0.742358
0	C	0.708972	0.526548	0.739196
0	C	0.527424	0.819803	0.253752
0	C	0.184165	0.708968	0.254698
0	C	0.298173	0.477918	0.255836
0	C	0.146151	0.516621	0.0675828
0	C	0.48872	0.629625	0.0726583
0	C	0.37446	0.860896	0.0746987
0	C	0.195061	0.155864	0.589033
0	C	0.852761	0.0407583	0.589567
0	C	0.961463	0.810288	0.590584
0	C	0.812258	0.848557	0.40576
0	C	0.154577	0.964045	0.407024
0	C	0.0456006	0.194161	0.404697
0	C	0.861268	0.487867	0.92524
0	C	0.518252	0.374707	0.9232
0	C	0.63233	0.143443	0.921028
0	C	0.425285	0.16735	0.766489
0	C	0.840616	0.258716	0.76733
0	C	0.745934	0.580575	0.764328
0	C	0.581795	0.836978	0.228898
0	C	0.1669	0.746063	0.231721
0	C	0.261342	0.423871	0.230313
0	C	0.0919236	0.499497	0.0961689
0	C	0.505908	0.59259	0.0992031
0	C	0.411876	0.914701	0.102127
0	C	0.24931	0.172927	0.561479
0	C	0.835534	0.0777133	0.561505
0	C	0.925319	0.756136	0.563545
0	C	0.758045	0.831516	0.434126
0	C	0.17176	0.927062	0.435173
0	C	0.081802	0.248286	0.43201
0	C	0.915503	0.505164	0.895896
0	C	0.501122	0.411807	0.897213
0	C	0.594909	0.0896303	0.893794
0	C	0.282088	0.169111	0.998131
0	C	0.839281	0.114043	0.999645
0	C	0.88988	0.722926	0.000583695
0	C	0.724654	0.83498	0.995492
0	C	0.167304	0.890142	0.99865
0	C	0.117597	0.281041	0.994424
0	C	0.948473	0.501167	0.331139
0	C	0.504933	0.448551	0.334036
0	C	0.558112	0.0566499	0.331016
0	C	0.392227	0.170874	0.327547
0	C	0.836702	0.222198	0.327975
0	C	0.782762	0.613168	0.327339
0	C	0.614779	0.833586	0.666536
0	C	0.170281	0.782616	0.67
0	C	0.224681	0.390993	0.667248
0	C	0.0588068	0.503683	0.660458
0	C	0.501924	0.555862	0.662836
0	C	0.448727	0.947442	0.664672
0	C	0.287419	0.216401	0.0731659
0	C	0.791704	0.0714563	0.0710726
0	C	0.932226	0.717773	0.0753629
0	C	0.719196	0.787561	0.921205
0	C	0.214598	0.932587	0.925103
0	C	0.0751326	0.286055	0.919972
0	C	0.953433	0.548526	0.404255
0	C	0.457572	0.406628	0.409231
0	C	0.600628	0.0512829	0.403084
0	C	0.386779	0.123378	0.253898
0	C	0.884032	0.264698	0.25491
0	C	0.740262	0.618041	0.252371
0	C	0.619953	0.881052	0.739349
0	C	0.12272	0.740187	0.742254
0	C	0.267105	0.385939	0.741884
0	C	0.0537727	0.45624	0.587808
0	C	0.54911	0.597824	0.586943
0	C	0.406379	0.952864	0.591356
0	H	0.122718	0.102857	0.0970806
0	H	0.908542	0.0240144	0.106187
0	H	0.980888	0.881441	0.103284
0	H	0.883978	0.901121	0.895122
0	H	0.0980068	0.980109	0.893126
0	H	0.0268885	0.122413	0.894133
0	H	0.789472	0.432676	0.443781
0	H	0.572898	0.357008	0.433724
0	H	0.650422	0.215089	0.433503
0	H	0.551587	0.237765	0.224582
0	H	0.767988	0.313128	0.22687
0	H	0.692492	0.454652	0.225164
0	H	0.455406	0.766062	0.77112
0	H	0.238283	0.691054	0.769075
0	H	0.314895	0.54945	0.772184
0	H	0.218024	0.571674	0.552816
0	H	0.434087	0.647419	0.562779
0	H	0.356487	0.788955	0.563212
0	H	0.173714	0.161158	0.978867
0	H	0.850723	0.0161579	0.980178
0	H	0.988928	0.831209	0.981692
0	H	0.833105	0.843187	0.0153658
0	H	0.156468	0.988318	0.0156902
0	H	0.0187395	0.172855	0.0137716
0	H	0.83822	0.49056	0.317189
0	H	0.514522	0.349252	0.311911
0	H	0.658252	0.165022	0.309874
0	H	0.501414	0.179902	0.347466
0	H	0.826666	0.321488	0.348321
0	H	0.683623	0.504415	0.346726
0	H	0.505321	0.823945	0.647605
0	H	0.179943	0.683315	0.647081
0	H	0.323996	0.500096	0.64871
0	H	0.168587	0.513555	0.676632
0	H	0.492662	0.655251	0.683434
0	H	0.348652	0.839217	0.685635
0	H	0.184598	0.147768	0.215444
0	H	0.860752	0.0382829	0.219047
0	H	0.965475	0.819807	0.219277
0	H	0.82205	0.85574	0.777962
0	H	0.14488	0.964919	0.77823
0	H	0.0423312	0.183805	0.776314
0	H	0.852076	0.479783	0.553371
0	H	0.526494	0.372738	0.549331
0	H	0.634659	0.153093	0.5473
0	H	0.489462	0.191641	0.110101
0	H	0.814538	0.297586	0.111382
0	H	0.708041	0.516468	0.110277
0	H	0.517517	0.812501	0.885056
0	H	0.191724	0.70655	0.884835
0	H	0.299549	0.48743	0.88511
0	H	0.155687	0.525188	0.440261
0	H	0.480143	0.631321	0.44656
0	H	0.372443	0.850894	0.448407
0	H	0.307358	0.0503189	0.768345
0	H	0.95785	0.257107	0.767187
0	H	0.746365	0.698244	0.763575
0	H	0.699804	0.953918	0.226592
0	H	0.0495019	0.747278	0.23451
0	H	0.261255	0.306324	0.231731
0	H	0.973978	0.382584	0.100984
0	H	0.623281	0.591137	0.0975819
0	H	0.413943	0.0332702	0.10404
0	H	0.367518	0.28961	0.561403
0	H	0.718022	0.0788728	0.558768
0	H	0.927248	0.639524	0.561186
0	H	0.639785	0.714811	0.435607
0	H	0.289201	0.925693	0.438054
0	H	0.080037	0.364948	0.435358
0	H	0.0332944	0.622282	0.890892
0	H	0.383895	0.413488	0.900966
0	H	0.592872	0.971097	0.891897
0	H	0.377305	0.0324152	0.743899
0	H	0.976394	0.344529	0.744586
0	H	0.658685	0.629203	0.742524
0	H	0.629961	0.971957	0.249997
0	H	0.0311933	0.659796	0.251936
0	H	0.348809	0.375548	0.253594
0	H	0.0435712	0.364472	0.0736408
0	H	0.641574	0.678373	0.0722161
0	H	0.326234	0.965167	0.075059
0	H	0.29811	0.307908	0.591097
0	H	0.699826	0.991612	0.585548
0	H	0.0142586	0.709661	0.589057
0	H	0.709203	0.696526	0.404061
0	H	0.307475	0.0129959	0.409765
0	H	0.992971	0.294931	0.407125
0	H	0.963602	0.64009	0.921589
0	H	0.365441	0.326159	0.924815
0	H	0.680646	0.0392567	0.919014
0	H	0.474233	0.0644179	0.701787
0	H	0.944614	0.409564	0.702821
0	H	0.594061	0.532854	0.699677
0	H	0.533041	0.940103	0.292429
0	H	0.0632668	0.594884	0.290494
0	H	0.413226	0.471949	0.297263
0	H	0.140261	0.396293	0.0249448
0	H	0.609614	0.743139	0.0265324
0	H	0.260798	0.869191	0.0284574
0	H	0.201362	0.276186	0.638659
0	H	0.731856	0.927012	0.632687
0	H	0.0774465	0.806202	0.635676
0	H	0.80586	0.728212	0.355171
0	H	0.275523	0.0776626	0.362644
0	H	0.929726	0.198465	0.360192
0	H	0.866872	0.607966	0.971671
0	H	0.397288	0.261259	0.969438
0	H	0.746098	0.135258	0.965416
0	H	0.539741	0.161557	0.697365
0	H	0.847122	0.378637	0.69734
0	H	0.626014	0.467259	0.693699
0	H	0.467466	0.843009	0.297914
0	H	0.160834	0.626141	0.296028
0	H	0.381031	0.537346	0.302443
0	H	0.205797	0.493352	0.0166413
0	H	0.512118	0.712134	0.02282
0	H	0.291438	0.802589	0.0240322
0	H	0.135543	0.179214	0.641302
0	H	0.829438	0.958271	0.639581
0	H	0.0438545	0.870521	0.640241
0	H	0.871714	0.825195	0.352144
0	H	0.177953	0.0465214	0.35683
0	H	0.963187	0.134043	0.354603
0	H	0.801531	0.510877	0.978321
0	H	0.494758	0.292142	0.972505
0	H	0.715387	0.201798	0.970793
0	H	0.508237	0.227201	0.740428
0	H	0.780773	0.282196	0.740721
0	H	0.723131	0.497916	0.737484
0	H	0.498823	0.777221	0.255654
0	H	0.226959	0.722812	0.256448
0	H	0.283911	0.506469	0.257236
0	H	0.174769	0.559194	0.0650149
0	H	0.44595	0.615894	0.0720906
0	H	0.388024	0.831788	0.0737359
0	H	0.166331	0.113316	0.589231
0	H	0.895557	0.054621	0.591535
0	H	0.946564	0.838339	0.591787
0	H	0.841008	0.891102	0.405525
0	H	0.111789	0.950228	0.405208
0	H	0.0604423	0.166065	0.40327
0	H	0.832729	0.445272	0.927055
0	H	0.561011	0.388376	0.923428
0	H	0.618737	0.172524	0.922446
0	H	0.412069	0.19657	0.783929
0	H	0.811155	0.216584	0.785001
0	H	0.788369	0.593489	0.781981
0	H	0.59495	0.807701	0.211791
0	H	0.196251	0.788296	0.215669
0	H	0.218908	0.410867	0.212087
0	H	0.0788463	0.528752	0.115507
0	H	0.476506	0.550534	0.119033
0	H	0.454064	0.926931	0.122178
0	H	0.262226	0.143598	0.540593
0	H	0.864895	0.119808	0.541999
0	H	0.882797	0.742616	0.544109
0	H	0.745149	0.860839	0.455505
0	H	0.142365	0.884994	0.454964
0	H	0.124309	0.261734	0.45145
0	H	0.928626	0.475987	0.875281
0	H	0.530556	0.453855	0.877436
0	H	0.552694	0.0773562	0.874346
