#******************************************
#
# CIF file created by Zeo++
# Zeo++ is an open source package to
# analyze microporous materials
#
#*******************************************

_cell_length_a		10.3361(0)
_cell_length_b		11.714(0)
_cell_length_c		18.3285(0)
_cell_angle_alpha		90(0)
_cell_angle_beta		98.7267(0)
_cell_angle_gamma		90(0)

_symmetry_space_group_name_H-M		'P1'
_symmetry_Int_Tables_number		1
_symmetry_cell_setting		Monoclinic

loop_
_symmetry_equiv_pos_as_xyz
'+x,+y,+z'

loop_
_atom_site_label
_atom_site_type_symbol
_atom_site_fract_x
_atom_site_fract_y
_atom_site_fract_z
0	C	0.695209	0.427052	0.0741232
0	C	0.793366	0.927257	0.428531
0	C	0.285952	0.601778	0.927601
0	C	0.187873	0.101376	0.57329
0	H	0.664889	0.468559	0.0218432
0	H	0.824087	0.968287	0.480894
0	H	0.316589	0.560512	0.979908
0	H	0.157438	0.0603136	0.520908
0	C	0.76871	0.329813	0.0914835
0	C	0.717036	0.831733	0.410835
0	C	0.212314	0.698898	0.910165
0	C	0.264197	0.196881	0.591079
0	H	0.813102	0.275419	0.0551567
0	H	0.669836	0.778888	0.446778
0	H	0.168039	0.753454	0.946472
0	H	0.311606	0.249684	0.555189
0	C	0.774757	0.313036	0.170054
0	C	0.712293	0.814303	0.332387
0	C	0.205748	0.715281	0.831529
0	C	0.268573	0.214369	0.669499
0	H	0.827054	0.245189	0.202668
0	H	0.658835	0.747255	0.299563
0	H	0.153192	0.782947	0.798835
0	H	0.321903	0.281444	0.702376
0	C	0.580414	0.56216	0.152912
0	C	0.910936	0.0607322	0.349828
0	C	0.400446	0.466378	0.848847
0	C	0.0699907	0.96794	0.651888
0	C	0.506256	0.551389	0.219703
0	C	0.984579	0.0504407	0.28273
0	C	0.474537	0.477148	0.782032
0	C	0.9963	0.97822	0.718982
0	C	0.400154	0.468241	0.215177
0	C	0.0926537	0.969244	0.287382
0	C	0.580493	0.560418	0.786442
0	C	0.888081	0.0592796	0.714301
0	C	0.328831	0.45278	0.276932
0	C	0.164364	0.954607	0.225713
0	C	0.651545	0.575886	0.724587
0	C	0.816394	0.0739836	0.775978
0	H	0.351578	0.503695	0.3267
0	H	0.140692	0.00496557	0.175771
0	H	0.628657	0.525019	0.67482
0	H	0.840357	0.0238944	0.826014
0	C	0.236045	0.370177	0.26484
0	C	0.258711	0.873316	0.238096
0	C	0.744349	0.658574	0.736589
0	C	0.721646	0.154914	0.763461
0	H	0.171323	0.339801	0.301711
0	H	0.32406	0.843712	0.201404
0	H	0.808841	0.688963	0.699621
0	H	0.656101	0.184441	0.800081
0	C	0.358708	0.396529	0.157104
0	C	0.135658	0.898522	0.345721
0	C	0.622066	0.632181	0.844467
0	C	0.844706	0.129614	0.65583
0	H	0.395295	0.389517	0.104807
0	H	0.0987828	0.891356	0.397915
0	H	0.585569	0.639189	0.896785
0	H	0.881481	0.136676	0.603576
0	C	0.576402	0.658128	0.111634
0	C	0.915205	0.156916	0.390958
0	C	0.404427	0.370405	0.890112
0	C	0.0656895	0.871753	0.61076
0	C	0.673323	0.685319	0.0609604
0	C	0.818517	0.184221	0.441755
0	C	0.307279	0.343194	0.940702
0	C	0.162234	0.844421	0.559885
0	C	0.814263	0.674978	0.0918209
0	C	0.677412	0.173194	0.411496
0	C	0.166455	0.353507	0.909726
0	C	0.303394	0.855468	0.590029
0	C	0.859516	0.67948	0.168034
0	C	0.631513	0.176816	0.335334
0	C	0.121475	0.349035	0.833472
0	C	0.349581	0.851843	0.666164
0	H	0.791554	0.69496	0.207117
0	H	0.699189	0.191857	0.296029
0	H	0.189601	0.333724	0.794453
0	H	0.282078	0.836738	0.705553
0	C	0.992294	0.664385	0.194578
0	C	0.498715	0.16132	0.309153
0	C	0.98875	0.363901	0.806778
0	C	0.482424	0.867439	0.692199
0	H	0.0263949	0.666634	0.253891
0	H	0.464257	0.162748	0.249856
0	H	0.954873	0.361602	0.747441
0	H	0.517093	0.866029	0.751484
0	C	0.0810901	0.645903	0.145289
0	C	0.410335	0.143359	0.358779
0	C	0.899654	0.382289	0.85592
0	C	0.570545	0.885465	0.642466
0	H	0.18544	0.634339	0.165826
0	H	0.305879	0.131712	0.338557
0	H	0.795351	0.393717	0.835263
0	H	0.675047	0.897176	0.662537
0	C	0.036873	0.64311	0.0692555
0	C	0.455149	0.141318	0.434752
0	C	0.943583	0.385087	0.931986
0	C	0.525454	0.887507	0.566504
0	H	0.106713	0.629295	0.031171
0	H	0.385752	0.127679	0.47313
0	H	0.873548	0.398805	0.969958
0	H	0.59464	0.901236	0.528003
0	C	0.904338	0.65812	0.0424636
0	C	0.587808	0.156717	0.461149
0	C	0.0761285	0.370073	0.958938
0	C	0.392752	0.872024	0.540249
0	H	0.86951	0.656513	0.983142
0	H	0.622818	0.155549	0.520432
0	H	0.110647	0.371678	0.0182958
0	H	0.357525	0.873189	0.480987
0	C	0.467126	0.742426	0.111439
0	C	0.0241164	0.241448	0.390732
0	C	0.51367	0.286078	0.890231
0	C	0.95685	0.787201	0.611102
0	C	0.49437	0.866452	0.109108
0	C	0.996435	0.365237	0.394224
0	C	0.486442	0.162054	0.892595
0	C	0.984443	0.663402	0.607425
0	C	0.392095	0.938919	0.0777256
0	C	0.0986534	0.437598	0.425858
0	C	0.588781	0.0895674	0.923905
0	C	0.882191	0.591181	0.57576
0	H	0.297608	0.90207	0.0546722
0	H	0.193729	0.400847	0.447839
0	H	0.683284	0.126436	0.946921
0	H	0.787129	0.627964	0.553803
0	C	0.411759	0.0566146	0.076027
0	C	0.0780384	0.554994	0.429185
0	C	0.56915	0.971874	0.925561
0	C	0.902648	0.473729	0.572362
0	H	0.333582	0.113339	0.0508458
0	H	0.156174	0.611564	0.454557
0	H	0.647324	0.915058	0.950646
0	H	0.824426	0.417237	0.547002
0	C	0.533257	0.102829	0.105856
0	C	0.955818	0.601109	0.400694
0	C	0.447614	0.925675	0.895796
0	C	0.0248362	0.427499	0.600831
0	H	0.548139	0.195054	0.104072
0	H	0.94027	0.69313	0.404002
0	H	0.432742	0.833443	0.897565
0	H	0.0402732	0.335464	0.597484
0	C	0.635006	0.0312923	0.137235
0	C	0.854353	0.529734	0.36878
0	C	0.345784	0.997186	0.864527
0	C	0.126385	0.498783	0.632777
0	H	0.730047	0.0668848	0.160697
0	H	0.758862	0.565158	0.346009
0	H	0.250742	0.961613	0.841128
0	H	0.221781	0.463226	0.655527
0	C	0.615922	0.913295	0.138726
0	C	0.87427	0.411962	0.3657
0	C	0.364871	0.115242	0.863069
0	C	0.106587	0.616556	0.635913
0	H	0.696086	0.858467	0.163737
0	H	0.794184	0.357461	0.340237
0	H	0.284638	0.169999	0.838117
0	H	0.186724	0.670958	0.66144
0	N	0.657594	0.465972	0.141389
0	N	0.833745	0.964674	0.361583
0	N	0.323118	0.562509	0.860304
0	N	0.147216	0.0639721	0.640162
0	N	0.706362	0.394782	0.199137
0	N	0.783688	0.894145	0.303701
0	N	0.273961	0.633367	0.802465
0	N	0.197023	0.134537	0.698083
0	O	0.635575	0.713318	0.997331
0	O	0.856849	0.212864	0.505214
0	O	0.344973	0.315097	0.00432616
0	O	0.123778	0.815799	0.49644
0	O	0.541522	0.612912	0.272155
0	O	0.947063	0.110824	0.23003
0	O	0.439251	0.415564	0.729608
0	O	0.0338608	0.917818	0.771671
0	O	0.356796	0.70589	0.112363
0	O	0.134355	0.20544	0.388717
0	O	0.623978	0.322624	0.889263
0	O	0.846665	0.823139	0.613345
0	S	0.233361	0.311159	0.177507
0	S	0.262316	0.814592	0.325565
0	S	0.747194	0.71761	0.823917
0	S	0.717706	0.213249	0.675822
