#******************************************
#
# CIF file created by Zeo++
# Zeo++ is an open source package to
# analyze microporous materials
#
#*******************************************

_cell_length_a		14.5692(0)
_cell_length_b		13.7018(0)
_cell_length_c		13.1086(0)
_cell_angle_alpha		90(0)
_cell_angle_beta		90(0)
_cell_angle_gamma		116.303(0)

_symmetry_space_group_name_H-M		'P1'
_symmetry_Int_Tables_number		1
_symmetry_cell_setting		Monoclinic

loop_
_symmetry_equiv_pos_as_xyz
'+x,+y,+z'

loop_
_atom_site_label
_atom_site_type_symbol
_atom_site_fract_x
_atom_site_fract_y
_atom_site_fract_z
0	O	0.77612	0.521739	0.95952
0	O	0.482464	0.317168	0.628387
0	O	0.671479	0.20007	0.293752
0	O	0.159353	0.515729	0.45813
0	O	0.447044	0.713058	0.124973
0	O	0.257418	0.834122	0.790826
0	H	0.756645	0.536371	0.887771
0	H	0.469887	0.283551	0.556459
0	H	0.703136	0.21897	0.221923
0	H	0.177158	0.500849	0.38578
0	H	0.458958	0.748154	0.0537042
0	H	0.225306	0.813982	0.719254
0	O	0.700264	0.415125	0.122879
0	O	0.579623	0.351894	0.792313
0	O	0.642808	0.278696	0.459073
0	O	0.231749	0.619095	0.620028
0	O	0.351553	0.675977	0.29197
0	O	0.283253	0.747281	0.954723
0	H	0.648661	0.38064	0.182018
0	H	0.617757	0.331116	0.848276
0	H	0.659601	0.333624	0.519261
0	H	0.286263	0.655194	0.676157
0	H	0.315871	0.69786	0.350051
0	H	0.268014	0.693525	0.0154837
0	O	0.773646	0.268658	0.114629
0	O	0.706818	0.563535	0.778058
0	O	0.443521	0.208455	0.445701
0	O	0.154655	0.762564	0.611101
0	O	0.22392	0.466742	0.27728
0	O	0.483497	0.822913	0.943191
0	H	0.753786	0.331429	0.106026
0	H	0.648381	0.486742	0.772566
0	H	0.518905	0.223561	0.438535
0	H	0.174313	0.699765	0.603568
0	H	0.283192	0.542879	0.27068
0	H	0.407081	0.803731	0.93475
0	O	0.668648	0.303792	0.948401
0	O	0.687458	0.408616	0.619487
0	O	0.581838	0.334921	0.286006
0	O	0.27135	0.73328	0.449726
0	O	0.24339	0.62207	0.119206
0	O	0.353714	0.705806	0.778463
0	H	0.704341	0.379873	0.982769
0	H	0.617407	0.376003	0.65778
0	H	0.616121	0.291076	0.320706
0	H	0.235226	0.657902	0.485983
0	H	0.313711	0.654167	0.15673
0	H	0.317472	0.748072	0.811984
0	C	0.632169	0.550387	0.015295
0	C	0.47452	0.148089	0.69009
0	C	0.830327	0.342632	0.354971
0	C	0.302989	0.485947	0.511494
0	C	0.457299	0.881156	0.192782
0	C	0.0981786	0.689117	0.849029
0	H	0.619941	0.565116	0.934934
0	H	0.474672	0.126064	0.608988
0	H	0.85181	0.360183	0.274029
0	H	0.314924	0.470253	0.43123
0	H	0.455938	0.905121	0.112509
0	H	0.0756929	0.675263	0.768118
0	H	0.605573	0.598671	0.0625117
0	H	0.429513	0.0729483	0.732368
0	H	0.900412	0.362627	0.398605
0	H	0.330862	0.439264	0.559423
0	H	0.503557	0.954908	0.236375
0	H	0.0285504	0.667266	0.893979
0	H	0.583549	0.463673	0.0312338
0	H	0.554461	0.181584	0.715975
0	H	0.798284	0.398407	0.379245
0	H	0.350844	0.57303	0.525782
0	H	0.37758	0.848011	0.220544
0	H	0.13056	0.632553	0.869294
0	C	0.744797	0.579056	0.0337753
0	C	0.432997	0.232061	0.702791
0	C	0.751418	0.22414	0.368564
0	C	0.19026	0.456397	0.530547
0	C	0.497624	0.795902	0.201099
0	C	0.177249	0.806994	0.865994
0	C	0.761935	0.531018	0.136805
0	C	0.469464	0.297446	0.805349
0	C	0.689974	0.206033	0.471056
0	C	0.173244	0.502778	0.63459
0	C	0.46199	0.72764	0.302322
0	C	0.237563	0.821153	0.968575
0	C	0.872292	0.547859	0.148689
0	C	0.435292	0.387547	0.814752
0	C	0.602	0.091419	0.478978
0	C	0.0623079	0.483097	0.648749
0	C	0.493679	0.635377	0.305498
0	C	0.327162	0.934357	0.979566
0	H	0.87789	0.494929	0.208936
0	H	0.476022	0.443445	0.87708
0	H	0.54439	0.0892784	0.534721
0	H	0.055459	0.530006	0.713684
0	H	0.443533	0.569816	0.356894
0	H	0.383547	0.933022	0.0351923
0	H	0.924804	0.632124	0.167499
0	H	0.353099	0.3552	0.82948
0	H	0.628182	0.0312975	0.502033
0	H	0.010575	0.397222	0.661604
0	H	0.572614	0.663253	0.33155
0	H	0.303024	0.995436	0.00448778
0	H	0.898722	0.526588	0.0771215
0	H	0.452596	0.435627	0.744009
0	H	0.562421	0.065867	0.405172
0	H	0.0356544	0.509665	0.580354
0	H	0.486589	0.598781	0.229312
0	H	0.367611	0.961389	0.906336
0	C	0.812838	0.70108	0.0214802
0	C	0.317365	0.18214	0.68628
0	C	0.798752	0.145423	0.353999
0	C	0.122323	0.33465	0.516354
0	C	0.612976	0.845093	0.182956
0	C	0.130141	0.886297	0.854761
0	H	0.893959	0.719089	0.0191412
0	H	0.290503	0.24516	0.682449
0	H	0.740002	0.0607214	0.354889
0	H	0.0413155	0.316868	0.512344
0	H	0.639168	0.78157	0.179282
0	H	0.189589	0.970627	0.853169
0	H	0.80137	0.748177	0.0831652
0	H	0.275195	0.124668	0.746858
0	H	0.85527	0.155527	0.413088
0	H	0.13234	0.28661	0.5781
0	H	0.656141	0.903264	0.242508
0	H	0.077034	0.877788	0.916898
0	H	0.79574	0.73023	0.949194
0	H	0.296523	0.137653	0.613525
0	H	0.837786	0.1594	0.279898
0	H	0.140747	0.306327	0.444246
0	H	0.632683	0.888646	0.109639
0	H	0.0875094	0.871765	0.782756
0	C	0.724717	0.57046	0.229604
0	C	0.441209	0.223979	0.899015
0	C	0.758794	0.237529	0.564952
0	C	0.213532	0.465257	0.726415
0	C	0.493517	0.798519	0.397722
0	C	0.167896	0.788232	0.0619269
0	H	0.650488	0.570642	0.215927
0	H	0.475064	0.166535	0.895916
0	H	0.816497	0.323102	0.561785
0	H	0.283973	0.458119	0.709096
0	H	0.449606	0.846216	0.405059
0	H	0.0966632	0.71416	0.0485987
0	H	0.779189	0.652454	0.252992
0	H	0.358294	0.176866	0.90734
0	H	0.798681	0.186696	0.573859
0	H	0.157363	0.386654	0.755681
0	H	0.574973	0.855424	0.397442
0	H	0.147698	0.8525	0.0863038
0	H	0.712533	0.515269	0.29489
0	H	0.471146	0.271463	0.969331
0	H	0.714561	0.230409	0.635219
0	H	0.233327	0.525137	0.788976
0	H	0.477363	0.749416	0.467931
0	H	0.205511	0.7689	0.126602
0	C	0.622584	0.112013	0.0600187
0	C	0.858176	0.545564	0.732916
0	C	0.449345	0.382042	0.407697
0	C	0.305709	0.922393	0.563868
0	C	0.0720304	0.483697	0.233577
0	C	0.483371	0.653002	0.898951
0	H	0.618697	0.0829883	0.138957
0	H	0.884082	0.574545	0.810894
0	H	0.428432	0.380041	0.488744
0	H	0.303865	0.949222	0.642754
0	H	0.0476202	0.455268	0.312056
0	H	0.500802	0.650756	0.980426
0	H	0.591078	0.0401701	0.0102484
0	H	0.925782	0.574509	0.683568
0	H	0.413396	0.425275	0.365462
0	H	0.33812	0.995347	0.515517
0	H	0.0035666	0.453784	0.18548
0	H	0.5227	0.614205	0.855825
0	H	0.57235	0.152854	0.0550103
0	H	0.823503	0.455806	0.734263
0	H	0.533203	0.430264	0.402281
0	H	0.358595	0.884536	0.562457
0	H	0.105983	0.573588	0.234597
0	H	0.400149	0.603605	0.889475
0	C	0.732544	0.190434	0.0323031
0	C	0.780928	0.58538	0.696813
0	C	0.416277	0.266517	0.368182
0	C	0.198448	0.841645	0.529914
0	C	0.149506	0.444775	0.196338
0	C	0.515845	0.770266	0.864825
0	C	0.73735	0.25492	0.931281
0	C	0.723925	0.523498	0.597474
0	C	0.473922	0.267498	0.266181
0	C	0.201852	0.780507	0.429279
0	C	0.206244	0.507144	0.0970756
0	C	0.461966	0.773858	0.761537
0	C	0.845179	0.343302	0.910449
0	C	0.633488	0.546538	0.570867
0	C	0.458621	0.153912	0.235809
0	C	0.0970647	0.690402	0.400804
0	C	0.296771	0.484246	0.0705269
0	C	0.478971	0.888795	0.734445
0	H	0.845054	0.3955	0.846666
0	H	0.609413	0.52532	0.491074
0	H	0.497716	0.155979	0.163418
0	H	0.101018	0.651235	0.328502
0	H	0.325299	0.512084	0.993129
0	H	0.437249	0.88874	0.664318
0	H	0.898499	0.309608	0.891638
0	H	0.650799	0.63202	0.582584
0	H	0.377895	0.0965824	0.22745
0	H	0.0393562	0.720401	0.392236
0	H	0.277678	0.397698	0.0761188
0	H	0.559865	0.944047	0.722849
0	H	0.87585	0.396677	0.977282
0	H	0.566214	0.497119	0.618473
0	H	0.492287	0.120641	0.293558
0	H	0.0695273	0.625692	0.45905
0	H	0.361575	0.5288	0.122666
0	H	0.449783	0.923105	0.795352
0	C	0.802093	0.133611	0.03001
0	C	0.830252	0.709127	0.685304
0	C	0.300046	0.202977	0.359826
0	C	0.126747	0.895641	0.521616
0	C	0.100547	0.321015	0.184895
0	C	0.632149	0.836026	0.862003
0	H	0.882422	0.192383	0.0198454
0	H	0.776382	0.737315	0.654283
0	H	0.277191	0.119389	0.334044
0	H	0.0483006	0.835928	0.503964
0	H	0.154145	0.292833	0.153203
0	H	0.654869	0.919777	0.836877
0	H	0.78051	0.0728721	0.969119
0	H	0.897822	0.738302	0.635887
0	H	0.268095	0.242491	0.307739
0	H	0.152449	0.959065	0.463005
0	H	0.0323159	0.291382	0.136436
0	H	0.6677	0.798546	0.811859
0	H	0.797352	0.0919126	0.102756
0	H	0.854881	0.747828	0.760287
0	H	0.264755	0.197721	0.435001
0	H	0.12368	0.933475	0.59452
0	H	0.0770311	0.282656	0.260197
0	H	0.663915	0.840551	0.938852
0	C	0.692478	0.178993	0.840292
0	C	0.797719	0.545556	0.508084
0	C	0.44754	0.32583	0.180116
0	C	0.250803	0.859956	0.341447
0	C	0.132616	0.486392	0.00774854
0	C	0.490663	0.718512	0.674535
0	H	0.611002	0.124356	0.852596
0	H	0.870344	0.546561	0.531815
0	H	0.460297	0.407917	0.203097
0	H	0.319636	0.932072	0.365872
0	H	0.0638781	0.494577	0.0305635
0	H	0.460087	0.630539	0.688184
0	H	0.732321	0.128708	0.826811
0	H	0.815202	0.623476	0.471353
0	H	0.367648	0.280975	0.15625
0	H	0.197706	0.887834	0.308221
0	H	0.108383	0.405191	0.975338
0	H	0.57373	0.751615	0.665648
0	H	0.697684	0.225169	0.769767
0	H	0.764504	0.480492	0.449927
0	H	0.49659	0.335913	0.11304
0	H	0.275321	0.820906	0.280292
0	H	0.169073	0.546976	0.946624
0	H	0.458736	0.728578	0.601223
