#******************************************
#
# CIF file created by Zeo++
# Zeo++ is an open source package to
# analyze microporous materials
#
#*******************************************

_cell_length_a		15.3031(0)
_cell_length_b		15.2669(0)
_cell_length_c		11.4972(0)
_cell_angle_alpha		90(0)
_cell_angle_beta		90(0)
_cell_angle_gamma		90(0)

_symmetry_space_group_name_H-M		'P1'
_symmetry_Int_Tables_number		1
_symmetry_cell_setting		Monoclinic

loop_
_symmetry_equiv_pos_as_xyz
'+x,+y,+z'

loop_
_atom_site_label
_atom_site_type_symbol
_atom_site_fract_x
_atom_site_fract_y
_atom_site_fract_z
0	C	0.19871	0.0261168	0.0651976
0	C	0.812481	0.987462	0.0652542
0	C	0.0248337	0.813577	0.934174
0	C	0.986306	0.199997	0.934264
0	C	0.31258	0.525616	0.434073
0	C	0.698493	0.487915	0.434041
0	C	0.486757	0.313532	0.565319
0	C	0.524382	0.700081	0.565334
0	C	0.213834	0.0369842	0.18541
0	C	0.797378	0.97659	0.185456
0	C	0.0356359	0.798543	0.813939
0	C	0.975535	0.215025	0.814009
0	C	0.297059	0.536854	0.314014
0	C	0.713982	0.476717	0.313965
0	C	0.475599	0.297957	0.685398
0	C	0.535592	0.715634	0.685403
0	C	0.182772	0.112492	0.242021
0	C	0.82844	0.901033	0.24204
0	C	0.111037	0.829588	0.757308
0	C	0.900156	0.183967	0.757379
0	C	0.327238	0.612879	0.257716
0	C	0.683777	0.400704	0.257649
0	C	0.399738	0.328181	0.741676
0	C	0.611445	0.685385	0.741694
0	C	0.136025	0.177206	0.180805
0	C	0.875112	0.836319	0.180768
0	C	0.175732	0.876176	0.818643
0	C	0.835443	0.137388	0.818663
0	C	0.373566	0.67772	0.319266
0	C	0.637501	0.335845	0.319205
0	C	0.334993	0.374511	0.680143
0	C	0.676143	0.638999	0.680123
0	C	0.119428	0.165897	0.0612113
0	C	0.891726	0.847668	0.0611961
0	C	0.164432	0.892798	0.938247
0	C	0.846711	0.120772	0.938271
0	C	0.391092	0.665768	0.438544
0	C	0.619993	0.347766	0.438483
0	C	0.346892	0.392071	0.560888
0	C	0.66423	0.621465	0.560841
0	C	0.154459	0.0923635	0.00281469
0	C	0.856674	0.921208	0.0028365
0	C	0.0909736	0.857859	0.996589
0	C	0.920157	0.155738	0.996658
0	C	0.357127	0.591603	0.496585
0	C	0.654015	0.421903	0.496563
0	C	0.420895	0.358081	0.502814
0	C	0.590213	0.655448	0.502808
0	C	0.263324	0.969387	0.253077
0	C	0.747874	0.0441576	0.25316
0	C	0.968161	0.749092	0.74613
0	C	0.0430352	0.264465	0.746226
0	C	0.248111	0.469011	0.246089
0	C	0.762877	0.544607	0.246037
0	C	0.543322	0.248907	0.753303
0	C	0.467861	0.764648	0.753334
0	C	0.197528	0.123848	0.368481
0	C	0.813559	0.889635	0.368469
0	C	0.12243	0.814823	0.630839
0	C	0.888808	0.198706	0.630901
0	C	0.311895	0.624564	0.131413
0	C	0.69914	0.389018	0.131319
0	C	0.388088	0.312788	0.868018
0	C	0.623099	0.700715	0.868049
0	C	0.275759	0.159143	0.411432
0	C	0.735264	0.854326	0.411231
0	C	0.157961	0.736518	0.58801
0	C	0.853414	0.277059	0.587999
0	C	0.233474	0.660009	0.0892998
0	C	0.777603	0.353662	0.0892445
0	C	0.352711	0.234197	0.910132
0	C	0.658435	0.7793	0.910265
0	C	0.28632	0.167611	0.532089
0	C	0.724573	0.845862	0.53188
0	C	0.166701	0.726036	0.467369
0	C	0.844706	0.287527	0.467346
0	C	0.222247	0.66872	0.968772
0	C	0.788834	0.344931	0.968693
0	C	0.343966	0.222957	0.0306645
0	C	0.6671	0.790458	0.0308187
0	N	0.22384	0.143191	0.609745
0	N	0.786957	0.87028	0.609689
0	N	0.142297	0.788618	0.389641
0	N	0.868984	0.224872	0.389679
0	N	0.284224	0.644354	0.890373
0	N	0.726805	0.369172	0.890312
0	N	0.368261	0.285088	0.109054
0	N	0.642806	0.728259	0.109101
0	C	0.147718	0.110231	0.566974
0	C	0.86311	0.903248	0.567058
0	C	0.109046	0.864761	0.432367
0	C	0.902068	0.148667	0.432446
0	C	0.360469	0.611108	0.932332
0	C	0.65049	0.402279	0.932265
0	C	0.401442	0.361522	0.0671087
0	C	0.609713	0.651822	0.0670366
0	C	0.132056	0.0994482	0.447845
0	C	0.878926	0.914032	0.447986
0	C	0.0979716	0.880365	0.551429
0	C	0.913113	0.13308	0.551541
0	C	0.376831	0.600152	0.0512289
0	C	0.634137	0.41326	0.0511716
0	C	0.412415	0.377893	0.948191
0	C	0.598806	0.635524	0.948101
0	C	0.104421	0.256828	0.244391
0	C	0.906608	0.756616	0.244295
0	C	0.255314	0.907596	0.75516
0	C	0.755879	0.105979	0.755198
0	C	0.403834	0.758134	0.256325
0	C	0.607205	0.25543	0.256255
0	C	0.254705	0.404728	0.74309
0	C	0.756397	0.608652	0.743033
0	C	0.145948	0.0860413	0.873835
0	C	0.865091	0.927527	0.873831
0	C	0.084627	0.866469	0.125557
0	C	0.926464	0.147115	0.125621
0	C	0.367258	0.584259	0.625346
0	C	0.643953	0.429167	0.625284
0	C	0.428172	0.368254	0.374108
0	C	0.582893	0.645235	0.374097
0	C	0.232393	0.945172	0.00385993
0	C	0.778761	0.0683956	0.00389122
0	C	0.944123	0.779692	0.995539
0	C	0.0670015	0.23389	0.995646
0	C	0.279015	0.444528	0.49518
0	C	0.732086	0.569009	0.49515
0	C	0.567604	0.279773	0.50412
0	C	0.443497	0.733758	0.50422
0	H	0.266147	0.982508	0.346794
0	H	0.745156	0.0310688	0.346916
0	H	0.981041	0.746774	0.652319
0	H	0.0300296	0.267047	0.652459
0	H	0.246172	0.481747	0.152111
0	H	0.76503	0.531747	0.152042
0	H	0.530526	0.246758	0.847105
0	H	0.480746	0.766899	0.847169
0	H	0.23264	0.90388	0.243611
0	H	0.778471	0.109699	0.243592
0	H	0.902731	0.779595	0.756131
0	H	0.108392	0.233744	0.755941
0	H	0.278579	0.403498	0.256514
0	H	0.732201	0.610045	0.256232
0	H	0.608623	0.279627	0.743072
0	H	0.402598	0.733835	0.743256
0	H	0.331165	0.964271	0.222676
0	H	0.68	0.04917	0.222877
0	H	0.963336	0.680923	0.775941
0	H	0.0481002	0.332546	0.776322
0	H	0.179983	0.464124	0.275414
0	H	0.830929	0.549736	0.275586
0	H	0.548385	0.180697	0.723741
0	H	0.462673	0.832829	0.723678
0	H	0.32689	0.180378	0.35168
0	H	0.68419	0.833108	0.351397
0	H	0.1792	0.685266	0.647777
0	H	0.832252	0.328348	0.647746
0	H	0.182632	0.681184	0.14955
0	H	0.828453	0.332561	0.149485
0	H	0.331579	0.183216	0.849861
0	H	0.679555	0.830295	0.850062
0	H	0.3464	0.195416	0.569313
0	H	0.664444	0.818055	0.568966
0	H	0.194714	0.665922	0.430196
0	H	0.81677	0.347664	0.430134
0	H	0.161964	0.696645	0.93227
0	H	0.849137	0.317069	0.932186
0	H	0.316061	0.162555	0.0671623
0	H	0.694961	0.850851	0.0674255
0	H	0.0981	0.0925434	0.631691
0	H	0.912658	0.920979	0.631903
0	H	0.0913605	0.914463	0.367588
0	H	0.919646	0.0988869	0.367703
0	H	0.409606	0.593222	0.867028
0	H	0.601311	0.420007	0.866955
0	H	0.419214	0.410788	0.132396
0	H	0.591928	0.602498	0.132258
0	H	0.0702588	0.0734982	0.416763
0	H	0.940762	0.940006	0.417
0	H	0.0717532	0.942181	0.582498
0	H	0.939196	0.0711837	0.58265
0	H	0.438735	0.573958	0.0815478
0	H	0.57218	0.439341	0.0814773
0	H	0.438555	0.439949	0.917867
0	H	0.572759	0.573474	0.9177
0	H	0.110677	0.316458	0.191455
0	H	0.900579	0.697064	0.191172
0	H	0.314732	0.901242	0.808203
0	H	0.696406	0.112638	0.808078
0	H	0.397876	0.817226	0.310384
0	H	0.613459	0.196298	0.310192
0	H	0.195818	0.39901	0.688841
0	H	0.815312	0.614587	0.688905
0	H	0.0345937	0.249468	0.267529
0	H	0.976353	0.764008	0.267838
0	H	0.248158	0.977571	0.731822
0	H	0.76288	0.0359094	0.732248
0	H	0.473329	0.751498	0.231333
0	H	0.537629	0.261937	0.231656
0	H	0.261341	0.474278	0.768529
0	H	0.749769	0.539006	0.768068
0	H	0.14026	0.269334	0.325388
0	H	0.870523	0.743979	0.325051
0	H	0.267778	0.871525	0.674256
0	H	0.743562	0.141816	0.674058
0	H	0.366772	0.771106	0.176419
0	H	0.644058	0.242607	0.176147
0	H	0.241617	0.367267	0.822686
0	H	0.769388	0.64586	0.822887
0	H	0.200376	0.0505712	0.832451
0	H	0.810529	0.962835	0.832515
0	H	0.0491703	0.811965	0.166959
0	H	0.961997	0.201512	0.167058
0	H	0.31394	0.547596	0.667106
0	H	0.697256	0.465909	0.667138
0	H	0.464807	0.314722	0.332118
0	H	0.546112	0.698591	0.332195
0	H	0.0850737	0.0520301	0.850248
0	H	0.925854	0.961702	0.850147
0	H	0.0507561	0.927539	0.14906
0	H	0.960206	0.0859737	0.149131
0	H	0.428987	0.551071	0.646998
0	H	0.582175	0.462252	0.647107
0	H	0.461253	0.430158	0.352369
0	H	0.549974	0.583239	0.352461
0	H	0.145093	0.15082	0.830909
0	H	0.866087	0.862736	0.830946
0	H	0.14925	0.867296	0.168532
0	H	0.861818	0.146401	0.168552
0	H	0.367552	0.648692	0.669171
0	H	0.643788	0.36471	0.669082
0	H	0.363902	0.368505	0.330254
0	H	0.647147	0.645131	0.330209
0	H	0.264628	0.89946	0.0658563
0	H	0.746492	0.114114	0.0658946
0	H	0.898612	0.747301	0.933511
0	H	0.1125	0.266364	0.933664
0	H	0.246898	0.398811	0.432999
0	H	0.764212	0.614675	0.43299
0	H	0.613174	0.247418	0.566213
0	H	0.397918	0.766021	0.566361
0	H	0.286296	0.966312	0.945057
0	H	0.724864	0.0472316	0.945116
0	H	0.965304	0.72578	0.0542461
0	H	0.0457617	0.28784	0.0544832
0	H	0.225078	0.465581	0.553763
0	H	0.786034	0.547905	0.553867
0	H	0.546454	0.225801	0.445494
0	H	0.464557	0.787781	0.445558
