#******************************************
#
# CIF file created by Zeo++
# Zeo++ is an open source package to
# analyze microporous materials
#
#*******************************************

_cell_length_a		3.86831(0)
_cell_length_b		11.865(0)
_cell_length_c		14.6853(0)
_cell_angle_alpha		106.607(0)
_cell_angle_beta		82.9384(0)
_cell_angle_gamma		111.905(0)

_symmetry_space_group_name_H-M		'P1'
_symmetry_Int_Tables_number		1
_symmetry_cell_setting		Triclinic

loop_
_symmetry_equiv_pos_as_xyz
'+x,+y,+z'

loop_
_atom_site_label
_atom_site_type_symbol
_atom_site_fract_x
_atom_site_fract_y
_atom_site_fract_z
0	O	0.245966	0.266897	0.0724201
0	O	0.770659	0.734329	0.927808
0	O	0.685498	0.561777	0.414967
0	O	0.331111	0.439444	0.58526
0	O	0.0896881	0.126391	0.350027
0	O	0.928285	0.874824	0.650252
0	N	0.518271	0.669848	0.290661
0	N	0.498375	0.331386	0.709571
0	N	0.589909	0.309364	0.384176
0	N	0.426907	0.691919	0.616061
0	C	0.439039	0.720995	0.22677
0	C	0.577595	0.280228	0.773461
0	C	0.315771	0.645706	0.135072
0	C	0.700888	0.355526	0.865161
0	H	0.249624	0.686278	0.0847291
0	H	0.767011	0.314951	0.915506
0	C	0.282168	0.520074	0.110037
0	C	0.734451	0.481157	0.890197
0	H	0.183298	0.461142	0.0396197
0	H	0.83335	0.540092	0.960612
0	C	0.364322	0.468429	0.175616
0	C	0.652299	0.532795	0.824615
0	C	0.336291	0.334916	0.151023
0	C	0.680354	0.666313	0.849212
0	C	0.420904	0.286072	0.224391
0	C	0.595716	0.715152	0.775836
0	H	0.398929	0.187445	0.203766
0	H	0.617694	0.813781	0.796469
0	C	0.524181	0.357608	0.312398
0	C	0.492464	0.6436	0.687843
0	C	0.576298	0.49535	0.338025
0	C	0.440348	0.505886	0.662213
0	C	0.483606	0.546943	0.265361
0	C	0.533027	0.454287	0.734873
0	C	0.478222	0.855507	0.25541
0	C	0.538404	0.145722	0.744824
0	H	0.210566	0.866968	0.251578
0	H	0.80607	0.134263	0.748652
0	H	0.680919	0.907448	0.207927
0	H	0.335719	0.0937781	0.792299
0	H	0.579052	0.901395	0.329008
0	H	0.437588	0.099836	0.671224
0	C	0.354488	0.192487	0.40107
0	C	0.661672	0.807838	0.599166
0	C	0.42426	0.156975	0.483869
0	C	0.592832	0.844139	0.516385
0	H	0.175142	0.146928	0.53286
0	H	0.841472	0.854301	0.467365
0	H	0.674626	0.224751	0.523866
0	H	0.342053	0.776476	0.476383
0	H	0.457848	0.0643564	0.458394
0	H	0.55873	0.936798	0.541848
0	H	0.79992	0.366951	0.4315
0	H	0.216758	0.634295	0.568731
