#******************************************
#
# CIF file created by Zeo++
# Zeo++ is an open source package to
# analyze microporous materials
#
#*******************************************

_cell_length_a		30.2847(0)
_cell_length_b		30.5416(0)
_cell_length_c		6.79031(0)
_cell_angle_alpha		90(0)
_cell_angle_beta		90(0)
_cell_angle_gamma		120.22(0)

_symmetry_space_group_name_H-M		'P1'
_symmetry_Int_Tables_number		1
_symmetry_cell_setting		Monoclinic

loop_
_symmetry_equiv_pos_as_xyz
'+x,+y,+z'

loop_
_atom_site_label
_atom_site_type_symbol
_atom_site_fract_x
_atom_site_fract_y
_atom_site_fract_z
0	C	0.584785	0.971338	0.0518828
0	C	0.0347891	0.608029	0.0474384
0	C	0.393894	0.418079	0.0433979
0	C	0.423603	0.0269337	0.0297108
0	C	0.974315	0.389811	0.0337319
0	C	0.61529	0.579987	0.0385154
0	C	0.250295	0.303938	0.386522
0	C	0.701467	0.941918	0.38634
0	C	0.0612568	0.752002	0.382825
0	C	0.0890113	0.360883	0.374212
0	C	0.643758	0.722717	0.370173
0	C	0.281152	0.91225	0.377858
0	C	0.920013	0.637134	0.707699
0	C	0.364734	0.275334	0.711055
0	C	0.727506	0.0855091	0.703396
0	C	0.758434	0.694027	0.6956
0	C	0.307159	0.0560709	0.695294
0	C	0.947478	0.246012	0.697805
0	C	0.59499	0.949781	0.21476
0	C	0.0562958	0.640224	0.209457
0	C	0.361908	0.408884	0.20556
0	C	0.413407	0.0484937	0.866854
0	C	0.952771	0.357617	0.871773
0	C	0.647207	0.589164	0.876113
0	C	0.259193	0.281299	0.549024
0	C	0.724088	0.973553	0.549007
0	C	0.029502	0.743175	0.54541
0	C	0.0793953	0.383268	0.212676
0	C	0.620848	0.69102	0.207937
0	C	0.313415	0.921446	0.21663
0	C	0.929694	0.614801	0.869257
0	C	0.387558	0.307044	0.873349
0	C	0.695208	0.076285	0.864518
0	C	0.749518	0.716633	0.533027
0	C	0.284494	0.0243476	0.532911
0	C	0.979287	0.254877	0.53536
0	C	0.592866	0.966652	0.405501
0	C	0.0391165	0.621539	0.400478
0	C	0.380852	0.411304	0.396939
0	C	0.415491	0.0316019	0.676096
0	C	0.969904	0.376304	0.680712
0	C	0.628195	0.586705	0.684829
0	C	0.256972	0.297862	0.740258
0	C	0.707546	0.954489	0.740107
0	C	0.0484516	0.745342	0.736633
0	C	0.0817961	0.367076	0.0209345
0	C	0.637376	0.709861	0.0165368
0	C	0.294734	0.918895	0.0246558
0	C	0.927235	0.630974	0.0609729
0	C	0.371003	0.288188	0.064697
0	C	0.713854	0.0788014	0.056536
0	C	0.751741	0.700053	0.341828
0	C	0.300957	0.0433326	0.341666
0	C	0.960382	0.252692	0.344073
0	C	0.57933	0.00351145	0.420472
0	C	0.00191153	0.571055	0.416423
0	C	0.431466	0.424132	0.413093
0	C	0.428964	0.994697	0.661049
0	C	0.0070693	0.426797	0.664772
0	C	0.577567	0.573856	0.668892
0	C	0.244485	0.335457	0.756052
0	C	0.669901	0.904149	0.755558
0	C	0.0989139	0.757654	0.752251
0	C	0.0948857	0.329927	0.00388517
0	C	0.675287	0.760089	0.000427253
0	C	0.244139	0.90603	0.00723467
0	C	0.913987	0.668009	0.0779801
0	C	0.333155	0.237934	0.0807628
0	C	0.764454	0.091696	0.074081
0	C	0.764177	0.662417	0.32616
0	C	0.338585	0.0936701	0.325861
0	C	0.909907	0.240332	0.328212
0	O	0.576437	0.0251365	0.599978
0	O	0.980033	0.54674	0.596354
0	O	0.456007	0.427323	0.593454
0	O	0.431822	0.97305	0.481541
0	O	0.0289068	0.451079	0.484788
0	O	0.552921	0.570639	0.488782
0	O	0.241615	0.356892	0.936136
0	O	0.648481	0.879604	0.935612
0	O	0.123434	0.760379	0.932119
0	O	0.0979806	0.308839	0.823164
0	O	0.696652	0.784475	0.82003
0	O	0.219919	0.903114	0.826251
0	O	0.910834	0.689071	0.258689
0	O	0.311808	0.213502	0.261106
0	O	0.788662	0.0946696	0.255149
0	O	0.767072	0.640985	0.146122
0	O	0.359903	0.118108	0.145565
0	O	0.885429	0.23754	0.148166
0	C	0.579513	0.0735056	0.53631
0	C	0.931169	0.501182	0.533244
0	C	0.501375	0.423438	0.532121
0	C	0.428753	0.924673	0.545276
0	C	0.0777467	0.496691	0.54778
0	C	0.507486	0.574378	0.550577
0	C	0.2458	0.405869	0.874128
0	C	0.599128	0.83441	0.873698
0	C	0.168394	0.755891	0.869491
0	C	0.0935446	0.259678	0.884136
0	C	0.746197	0.829546	0.881099
0	C	0.174851	0.907629	0.886663
0	C	0.915155	0.738167	0.197712
0	C	0.2623	0.168425	0.199915
0	C	0.83372	0.090152	0.194857
0	C	0.76285	0.591993	0.208221
0	C	0.40922	0.163429	0.206859
0	C	0.840323	0.241842	0.210245
0	C	0.556351	0.0939986	0.680757
0	C	0.910122	0.45799	0.679467
0	C	0.545343	0.446537	0.676737
0	C	0.451732	0.904051	0.400508
0	C	0.0986	0.539796	0.401282
0	C	0.463396	0.55114	0.40667
0	C	0.222725	0.426534	0.018299
0	C	0.578299	0.790684	0.0176832
0	C	0.212538	0.778333	0.0133503
0	C	0.115985	0.238641	0.738779
0	C	0.766936	0.873169	0.736702
0	C	0.131268	0.885425	0.740333
0	C	0.892539	0.759007	0.343165
0	C	0.241538	0.124782	0.344254
0	C	0.87723	0.112309	0.34147
0	C	0.78583	0.571207	0.0641607
0	C	0.42954	0.206938	0.0620573
0	C	0.79628	0.219117	0.065948
0	C	0.558602	0.140707	0.580352
0	C	0.862764	0.413341	0.579733
0	C	0.589985	0.443591	0.578082
0	C	0.449516	0.857358	0.501077
0	C	0.145881	0.584703	0.500541
0	C	0.418661	0.553867	0.505981
0	C	0.22592	0.473798	0.919065
0	C	0.530447	0.746491	0.918213
0	C	0.256533	0.774564	0.912806
0	C	0.112299	0.191113	0.837414
0	C	0.814879	0.917502	0.834878
0	C	0.086643	0.888595	0.837949
0	C	0.895883	0.806441	0.244898
0	C	0.193577	0.0804868	0.245804
0	C	0.921805	0.109006	0.243861
0	C	0.782308	0.523825	0.163749
0	C	0.477075	0.251734	0.160176
0	C	0.751855	0.222279	0.165581
0	C	0.537134	0.132445	0.368363
0	C	0.870993	0.399701	0.368713
0	C	0.603631	0.464708	0.36596
0	C	0.471421	0.865918	0.71238
0	C	0.137686	0.598326	0.711562
0	C	0.405349	0.533126	0.718679
0	C	0.204898	0.466201	0.706535
0	C	0.538328	0.733169	0.706164
0	C	0.270403	0.796328	0.701653
0	C	0.134264	0.19889	0.0485551
0	C	0.807631	0.930843	0.0478187
0	C	0.0723507	0.867021	0.0493374
0	C	0.874279	0.798805	0.0332496
0	C	0.20096	0.067161	0.0330614
0	C	0.936269	0.130779	0.0330063
0	C	0.803868	0.531733	0.375521
0	C	0.469631	0.264963	0.372985
0	C	0.738137	0.200853	0.377276
0	C	0.55833	0.106629	0.234738
0	C	0.897809	0.446289	0.233322
0	C	0.556324	0.443142	0.231762
0	C	0.450344	0.891762	0.846506
0	C	0.111067	0.551774	0.847232
0	C	0.452889	0.554862	0.851798
0	C	0.226331	0.440581	0.57306
0	C	0.564101	0.780185	0.572476
0	C	0.223062	0.77548	0.567945
0	C	0.113486	0.224825	0.183697
0	C	0.781849	0.88383	0.181554
0	C	0.119253	0.887633	0.185369
0	C	0.895241	0.773016	0.898228
0	C	0.226742	0.114164	0.899309
0	C	0.889461	0.11024	0.896508
0	C	0.782472	0.557351	0.509285
0	C	0.444334	0.217983	0.507043
0	C	0.785491	0.222155	0.511134
0	C	0.549685	0.058712	0.337537
0	C	0.946173	0.485926	0.335995
0	C	0.51684	0.452392	0.331932
0	C	0.458735	0.939586	0.743693
0	C	0.0627308	0.511963	0.744963
0	C	0.49221	0.545505	0.750921
0	C	0.21658	0.392073	0.674015
0	C	0.613021	0.819452	0.673201
0	C	0.184019	0.785083	0.669833
0	C	0.123116	0.273389	0.0834859
0	C	0.732665	0.844763	0.08177
0	C	0.158702	0.878228	0.0857861
0	C	0.885628	0.72444	0.998268
0	C	0.275893	0.153242	0.999273
0	C	0.849928	0.119581	0.995787
0	C	0.792094	0.605814	0.408294
0	C	0.39539	0.178448	0.407331
0	C	0.824732	0.212716	0.410031
0	C	0.566628	0.0239954	0.2546
0	C	0.981372	0.537473	0.251602
0	C	0.464931	0.435805	0.247823
0	C	0.441723	0.974238	0.826877
0	C	0.0276301	0.460409	0.829547
0	C	0.544184	0.562157	0.834415
0	C	0.232922	0.35696	0.590453
0	C	0.648251	0.871092	0.589778
0	C	0.132189	0.769067	0.586463
0	C	0.106834	0.30844	0.168491
0	C	0.697214	0.793249	0.16577
0	C	0.210378	0.894362	0.171497
0	C	0.901984	0.689439	0.913343
0	C	0.311311	0.204776	0.915392
0	C	0.798259	0.103405	0.909916
0	C	0.775722	0.640913	0.491836
0	C	0.360292	0.126837	0.491331
0	C	0.876568	0.228882	0.493778
0	C	0.569683	0.00833137	0.0678255
0	C	0.99747	0.555851	0.0645378
0	C	0.44621	0.432382	0.0605388
0	C	0.438687	0.989923	0.0136473
0	C	0.0115924	0.442008	0.0166066
0	C	0.562957	0.56561	0.0216302
0	C	0.23623	0.341683	0.403295
0	C	0.663566	0.889904	0.402709
0	C	0.113448	0.765814	0.39937
0	C	0.103695	0.323608	0.356037
0	C	0.681857	0.774648	0.353042
0	C	0.228809	0.897771	0.359274
0	C	0.905188	0.674306	0.725816
0	C	0.326702	0.223384	0.728143
0	C	0.779857	0.100023	0.722121
0	C	0.772448	0.65624	0.678951
0	C	0.345022	0.108094	0.678509
0	C	0.89528	0.232148	0.680966
0	O	0.589593	0.95413	0.870648
0	O	0.0524264	0.629684	0.865753
0	O	0.371965	0.413097	0.8615
0	O	0.418834	0.0441519	0.210998
0	O	0.956672	0.36816	0.215404
0	O	0.637285	0.585057	0.220341
0	O	0.255343	0.287126	0.204888
0	O	0.718501	0.963919	0.204841
0	O	0.0392435	0.747154	0.201209
0	O	0.0838881	0.377279	0.556599
0	O	0.626884	0.700885	0.551978
0	O	0.302816	0.917542	0.560396
0	O	0.925185	0.620762	0.52535
0	O	0.381629	0.297162	0.529242
0	O	0.705869	0.0802195	0.520817
0	O	0.753436	0.710904	0.8772
0	O	0.290209	0.0341335	0.876929
0	O	0.969464	0.250899	0.879503
0	O	0.610173	0.180892	0.560785
0	O	0.822675	0.424591	0.558634
0	O	0.577964	0.392218	0.559635
0	O	0.3979	0.817378	0.522281
0	O	0.18629	0.573929	0.520952
0	O	0.4305	0.605192	0.523571
0	O	0.277777	0.51354	0.901385
0	O	0.490844	0.758492	0.898803
0	O	0.243357	0.722938	0.890836
0	O	0.060229	0.152169	0.85904
0	O	0.854782	0.905848	0.851402
0	O	0.099122	0.940049	0.857738
0	O	0.947853	0.845749	0.224614
0	O	0.153814	0.0923285	0.228574
0	O	0.909129	0.0575163	0.22339
0	O	0.730317	0.484579	0.183845
0	O	0.517535	0.240886	0.177336
0	O	0.76421	0.273695	0.185963
0	C	0.531278	0.159144	0.708232
0	C	0.843583	0.367919	0.7092
0	C	0.635933	0.470152	0.706955
0	C	0.47636	0.838535	0.372413
0	C	0.164436	0.629916	0.370383
0	C	0.372883	0.526901	0.376422
0	C	0.199043	0.492734	0.046887
0	C	0.510765	0.700821	0.0465408
0	C	0.302584	0.799976	0.0416279
0	C	0.138077	0.17145	0.707066
0	C	0.833672	0.963098	0.706567
0	C	0.0409644	0.862407	0.707584
0	C	0.869665	0.825673	0.374715
0	C	0.174551	0.0348326	0.373962
0	C	0.96735	0.134941	0.374965
0	C	0.808442	0.504278	0.0349207
0	C	0.495525	0.297241	0.0315863
0	C	0.705804	0.196137	0.0370294
0	N	0.510093	0.173437	0.80663
0	N	0.828705	0.332699	0.808873
0	N	0.671548	0.490729	0.806239
0	N	0.497177	0.823927	0.273523
0	N	0.178839	0.664994	0.270172
0	N	0.337316	0.505966	0.277029
0	N	0.178228	0.507404	0.145452
0	N	0.495484	0.665367	0.14522
0	N	0.338306	0.819662	0.140775
0	N	0.158056	0.156169	0.606908
0	N	0.848283	0.998467	0.607987
0	N	0.00559149	0.842134	0.606906
0	N	0.849337	0.840588	0.474975
0	N	0.159711	0.999365	0.472128
0	N	0.00268189	0.155032	0.475872
0	N	0.828713	0.489078	0.936021
0	N	0.509839	0.332542	0.932719
0	N	0.670084	0.175869	0.938134
0	H	0.60525	0.920657	0.192531
0	H	0.0857396	0.679665	0.186154
0	H	0.32239	0.399259	0.182186
0	H	0.403189	0.0776503	0.889135
0	H	0.923366	0.31817	0.895092
0	H	0.686744	0.598825	0.899323
0	H	0.268534	0.251554	0.526072
0	H	0.75378	0.0128986	0.526415
0	H	0.990109	0.733942	0.522524
0	H	0.0693278	0.41249	0.236882
0	H	0.590915	0.651783	0.231174
0	H	0.352985	0.931372	0.241257
0	H	0.939866	0.585657	0.845092
0	H	0.417508	0.346284	0.850114
0	H	0.655656	0.066409	0.8398
0	H	0.740182	0.746393	0.555875
0	H	0.254844	0.984997	0.555807
0	H	0.0186896	0.264162	0.558503
0	H	0.602539	0.95197	0.535659
0	H	0.0538339	0.646127	0.530087
0	H	0.35628	0.402483	0.526631
0	H	0.405824	0.0463075	0.545999
0	H	0.955202	0.351725	0.55109
0	H	0.652737	0.595519	0.555028
0	H	0.265746	0.282325	0.870084
0	H	0.723136	0.978746	0.870213
0	H	0.0239662	0.736664	0.866524
0	H	0.0726822	0.382526	0.89172
0	H	0.621567	0.685506	0.886812
0	H	0.319502	0.927728	0.895588
0	H	0.936414	0.615582	0.190205
0	H	0.386761	0.312557	0.194432
0	H	0.689056	0.06994	0.18551
0	H	0.743001	0.715594	0.211907
0	H	0.285325	0.0190182	0.211761
0	H	0.984913	0.261399	0.214312
0	H	0.621255	0.10043	0.517051
0	H	0.904085	0.515464	0.511666
0	H	0.486067	0.381907	0.515299
0	H	0.387021	0.897792	0.56509
0	H	0.104876	0.482469	0.569304
0	H	0.522718	0.615897	0.567201
0	H	0.287716	0.432313	0.857095
0	H	0.572375	0.849263	0.857008
0	H	0.152542	0.714281	0.851862
0	H	0.0516012	0.233485	0.902271
0	H	0.772792	0.814495	0.89727
0	H	0.190661	0.949206	0.905004
0	H	0.957083	0.764464	0.179775
0	H	0.235671	0.183435	0.183656
0	H	0.817937	0.0485781	0.176516
0	H	0.720926	0.565605	0.22531
0	H	0.436107	0.148745	0.223398
0	H	0.855984	0.283426	0.227562
0	H	0.577756	0.105049	0.822273
0	H	0.899158	0.468707	0.820006
0	H	0.534747	0.425782	0.819356
0	H	0.430176	0.892941	0.259382
0	H	0.109604	0.529077	0.260831
0	H	0.47367	0.571898	0.264059
0	H	0.243659	0.436918	0.16092
0	H	0.567947	0.800956	0.160631
0	H	0.20189	0.757518	0.155791
0	H	0.094803	0.228468	0.596757
0	H	0.777163	0.862788	0.593755
0	H	0.142437	0.906707	0.598956
0	H	0.913739	0.769318	0.485115
0	H	0.231313	0.135128	0.487286
0	H	0.865993	0.0910591	0.482865
0	H	0.764973	0.560899	0.921405
0	H	0.440145	0.196705	0.919536
0	H	0.806851	0.239983	0.923617
0	H	0.516557	0.0652806	0.71976
0	H	0.938759	0.447109	0.719578
0	H	0.556715	0.486205	0.713335
0	H	0.491498	0.93272	0.360926
0	H	0.069787	0.550425	0.360924
0	H	0.452094	0.511498	0.369796
0	H	0.182691	0.398046	0.0552937
0	H	0.606874	0.779408	0.0538356
0	H	0.22465	0.818156	0.0504869
0	H	0.15608	0.26679	0.70098
0	H	0.738284	0.884367	0.700741
0	H	0.119598	0.845781	0.701783
0	H	0.852494	0.730736	0.38086
0	H	0.270173	0.113551	0.380102
0	H	0.889004	0.151982	0.379851
0	H	0.825945	0.599524	0.0274936
0	H	0.400543	0.217607	0.0252386
0	H	0.784599	0.1794	0.0287038
0	H	0.547122	0.169996	0.305352
0	H	0.832992	0.372088	0.305817
0	H	0.631771	0.45504	0.304661
0	H	0.461709	0.828479	0.775783
0	H	0.1757	0.626061	0.774084
0	H	0.377447	0.543054	0.780473
0	H	0.215153	0.50396	0.645063
0	H	0.50036	0.705193	0.644266
0	H	0.298289	0.786521	0.638796
0	H	0.124128	0.161193	0.11023
0	H	0.845843	0.958629	0.108583
0	H	0.0444163	0.877047	0.11019
0	H	0.88446	0.836543	0.971655
0	H	0.162796	0.0393467	0.972094
0	H	0.964308	0.120882	0.972178
0	H	0.793969	0.494142	0.437669
0	H	0.507741	0.293008	0.433758
0	H	0.710124	0.210595	0.439392
0	H	0.494712	0.109805	0.371076
0	H	0.893178	0.379758	0.373306
0	H	0.623222	0.50677	0.368003
0	H	0.513828	0.888688	0.708345
0	H	0.115388	0.618154	0.707274
0	H	0.385631	0.491051	0.718183
0	H	0.16246	0.443594	0.707983
0	H	0.561184	0.713925	0.708508
0	H	0.290258	0.838386	0.705801
0	H	0.17667	0.221337	0.0443244
0	H	0.785055	0.950376	0.0471825
0	H	0.0522669	0.824955	0.0456535
0	H	0.831866	0.776358	0.0363507
0	H	0.223582	0.0476793	0.0338559
0	H	0.956281	0.172839	0.0372889
0	H	0.846284	0.554505	0.372603
0	H	0.446709	0.284137	0.372411
0	H	0.718488	0.158792	0.374365
0	H	0.599469	0.132859	0.205446
0	H	0.871843	0.461087	0.200897
0	H	0.541281	0.402179	0.206176
0	H	0.409266	0.865484	0.876663
0	H	0.137165	0.537143	0.879712
0	H	0.468022	0.595871	0.876717
0	H	0.267704	0.466597	0.547497
0	H	0.53778	0.794927	0.546917
0	H	0.20756	0.734491	0.541055
0	H	0.0721722	0.198952	0.21095
0	H	0.808013	0.868848	0.205927
0	H	0.134642	0.928558	0.213296
0	H	0.936567	0.798958	0.871484
0	H	0.200552	0.12911	0.874916
0	H	0.87409	0.06933	0.868313
0	H	0.741125	0.53129	0.535173
0	H	0.470907	0.203511	0.531915
0	H	0.800747	0.263141	0.537143
0	H	0.538898	0.0977192	0.0898283
0	H	0.906869	0.435262	0.0901402
0	H	0.56689	0.461572	0.0853217
0	H	0.470015	0.900806	0.99093
0	H	0.101986	0.562795	0.990399
0	H	0.442627	0.536665	0.998764
0	H	0.207732	0.432504	0.426616
0	H	0.572217	0.769872	0.426001
0	H	0.233693	0.794191	0.422039
0	H	0.132527	0.232848	0.329161
0	H	0.774086	0.894209	0.328535
0	H	0.108002	0.868573	0.330481
0	H	0.876337	0.765028	0.752463
0	H	0.234541	0.103822	0.75232
0	H	0.900789	0.129367	0.751543
0	H	0.801118	0.565487	0.65562
0	H	0.436307	0.228254	0.65379
0	H	0.774929	0.203615	0.657364
0	H	0.50732	0.0341482	0.368129
0	H	0.970731	0.468515	0.368602
0	H	0.535029	0.494528	0.360618
0	H	0.501066	0.964254	0.712569
0	H	0.0380571	0.529249	0.712291
0	H	0.473994	0.503364	0.722465
0	H	0.174051	0.367967	0.702708
0	H	0.637454	0.801669	0.701406
0	H	0.202597	0.827214	0.69947
0	H	0.16558	0.297499	0.0538764
0	H	0.708439	0.862788	0.0540273
0	H	0.140341	0.836146	0.0557941
0	H	0.843161	0.70029	0.0277043
0	H	0.30013	0.135232	0.0270928
0	H	0.868257	0.16166	0.025843
0	H	0.834609	0.629968	0.3794
0	H	0.370792	0.19605	0.379071
0	H	0.806308	0.17058	0.380648
0	H	0.561219	0.0231253	0.935543
0	H	0.982875	0.532207	0.933026
0	H	0.469597	0.440002	0.928564
0	H	0.447192	0.975151	0.145893
0	H	0.0262086	0.465636	0.148156
0	H	0.539565	0.557941	0.153621
0	H	0.228696	0.357274	0.271217
0	H	0.647877	0.866817	0.270383
0	H	0.136727	0.773209	0.267239
0	H	0.111788	0.308258	0.487502
0	H	0.697638	0.797836	0.485044
0	H	0.205213	0.890029	0.490617
0	H	0.897059	0.689608	0.594303
0	H	0.31099	0.200187	0.596153
0	H	0.80347	0.107814	0.590817
0	H	0.779994	0.640656	0.811058
0	H	0.360719	0.131231	0.81071
0	H	0.87196	0.224709	0.812972
0	H	0.592527	0.978095	0.761917
0	H	0.0281803	0.608356	0.757461
0	H	0.393207	0.409701	0.753991
0	H	0.415776	0.0201076	0.319617
0	H	0.980904	0.389499	0.323741
0	H	0.616007	0.588385	0.327889
0	H	0.258665	0.311473	0.096997
0	H	0.694251	0.942489	0.0965854
0	H	0.0604253	0.743838	0.0932745
0	H	0.080374	0.352527	0.663172
0	H	0.651609	0.722099	0.659494
0	H	0.281243	0.920906	0.666664
0	H	0.928551	0.645428	0.418666
0	H	0.356919	0.27596	0.421696
0	H	0.727435	0.0768306	0.41459
0	H	0.750012	0.686516	0.985104
0	H	0.314535	0.0556047	0.98496
0	H	0.948223	0.254173	0.987303
0	H	0.629915	0.186488	0.68402
0	H	0.817036	0.43858	0.681778
0	H	0.563032	0.372724	0.682435
0	H	0.378201	0.811093	0.398403
0	H	0.191637	0.559528	0.398468
0	H	0.444529	0.624359	0.399388
0	H	0.297266	0.518268	0.0246274
0	H	0.485823	0.772947	0.0219049
0	H	0.228731	0.703267	0.0135883
0	H	0.0406663	0.146424	0.73508
0	H	0.859589	0.891544	0.727447
0	H	0.113249	0.959397	0.733816
0	H	0.967394	0.851313	0.348471
0	H	0.148728	0.106362	0.352755
0	H	0.894989	0.0380769	0.347015
0	H	0.710725	0.479387	0.0604806
0	H	0.522313	0.226205	0.0545133
0	H	0.778788	0.293291	0.0630147
