#******************************************
#
# CIF file created by Zeo++
# Zeo++ is an open source package to
# analyze microporous materials
#
#*******************************************

_cell_length_a		22.7095(0)
_cell_length_b		22.7329(0)
_cell_length_c		9.96077(0)
_cell_angle_alpha		90(0)
_cell_angle_beta		90(0)
_cell_angle_gamma		90(0)

_symmetry_space_group_name_H-M		'P1'
_symmetry_Int_Tables_number		1
_symmetry_cell_setting		Monoclinic

loop_
_symmetry_equiv_pos_as_xyz
'+x,+y,+z'

loop_
_atom_site_label
_atom_site_type_symbol
_atom_site_fract_x
_atom_site_fract_y
_atom_site_fract_z
0	O	0.763521	0.215931	0.228026
0	O	0.242123	0.788638	0.227711
0	O	0.216738	0.241442	0.771042
0	O	0.788924	0.763102	0.771183
0	O	0.743352	0.718044	0.273481
0	O	0.262229	0.286578	0.273605
0	O	0.287122	0.742788	0.725377
0	O	0.718507	0.261804	0.725319
0	O	0.76433	0.248687	0.349662
0	O	0.241323	0.755932	0.349418
0	O	0.249448	0.240741	0.6493
0	O	0.756226	0.763855	0.649431
0	O	0.742093	0.750713	0.151778
0	O	0.263538	0.253921	0.151892
0	O	0.254403	0.741493	0.847042
0	O	0.751234	0.263146	0.846981
0	C	0.761167	0.31033	0.311148
0	C	0.244482	0.694276	0.311029
0	C	0.311157	0.243957	0.687802
0	C	0.694511	0.760623	0.68786
0	C	0.745384	0.812375	0.19009
0	C	0.26023	0.192256	0.190144
0	C	0.19267	0.744765	0.808792
0	C	0.812968	0.259848	0.808724
0	C	0.746182	0.344266	0.442151
0	C	0.259502	0.660373	0.44206
0	C	0.345093	0.258952	0.556787
0	C	0.660588	0.74565	0.556814
0	C	0.759939	0.846145	0.0585653
0	C	0.245696	0.158487	0.0586056
0	C	0.1589	0.75935	0.940348
0	C	0.846741	0.245286	0.940296
0	C	0.696674	0.384871	0.400762
0	C	0.308967	0.619724	0.40063
0	C	0.38563	0.308513	0.598088
0	C	0.620052	0.696081	0.598045
0	C	0.809565	0.886804	0.0989374
0	C	0.196069	0.117827	0.0988697
0	C	0.118203	0.808925	0.900031
0	C	0.887403	0.19568	0.900029
0	C	0.676511	0.372273	0.276787
0	C	0.329103	0.632296	0.276604
0	C	0.373024	0.328644	0.722071
0	C	0.632645	0.675923	0.722016
0	C	0.830096	0.874385	0.222644
0	C	0.17549	0.130257	0.222609
0	C	0.130583	0.829371	0.776188
0	C	0.875032	0.175216	0.776227
0	C	0.707984	0.320744	0.213376
0	C	0.297638	0.68383	0.213195
0	C	0.321523	0.297109	0.785569
0	C	0.684136	0.707455	0.785567
0	C	0.798907	0.822881	0.286852
0	C	0.206688	0.181746	0.286844
0	C	0.182111	0.798192	0.711972
0	C	0.823501	0.206388	0.711989
0	C	0.666409	0.267185	0.19576
0	C	0.339232	0.737375	0.195504
0	C	0.267841	0.338553	0.803225
0	C	0.737797	0.665995	0.80321
0	C	0.840568	0.769355	0.303939
0	C	0.165014	0.235259	0.303946
0	C	0.235648	0.839858	0.69477
0	C	0.769958	0.164728	0.694893
0	C	0.626609	0.256516	0.321748
0	C	0.379042	0.748073	0.321467
0	C	0.257079	0.378293	0.677242
0	C	0.74856	0.626276	0.677207
0	C	0.880126	0.758586	0.177586
0	C	0.125473	0.246013	0.17756
0	C	0.246393	0.879418	0.82108
0	C	0.759231	0.125195	0.821236
0	C	0.629465	0.190966	0.348378
0	C	0.376171	0.813624	0.348068
0	C	0.191456	0.375363	0.650715
0	C	0.814178	0.629199	0.650649
0	C	0.877156	0.693033	0.151048
0	C	0.12844	0.311564	0.150988
0	C	0.312016	0.876493	0.847699
0	C	0.693612	0.128133	0.847844
0	C	0.671503	0.16511	0.27356
0	C	0.334128	0.839461	0.273214
0	C	0.165666	0.333283	0.725427
0	C	0.839988	0.671261	0.725473
0	C	0.835312	0.667231	0.226533
0	C	0.170259	0.33738	0.226539
0	C	0.337884	0.834695	0.772185
0	C	0.667729	0.169902	0.772347
0	C	0.703074	0.208626	0.184836
0	C	0.302571	0.795932	0.184512
0	C	0.209282	0.301822	0.814174
0	C	0.796367	0.702708	0.814224
0	C	0.803959	0.710786	0.315588
0	C	0.201608	0.293833	0.315622
0	C	0.294301	0.803331	0.683177
0	C	0.711296	0.201247	0.683274
0	C	0.820597	0.330031	0.25762
0	C	0.185041	0.674553	0.257619
0	C	0.330852	0.184594	0.741408
0	C	0.674776	0.819964	0.741515
0	C	0.68611	0.831972	0.244736
0	C	0.319482	0.172621	0.244843
0	C	0.173038	0.68555	0.754186
0	C	0.832598	0.319054	0.754048
0	C	0.871413	0.301271	0.303793
0	C	0.134235	0.70336	0.303703
0	C	0.301986	0.133845	0.69542
0	C	0.703661	0.87074	0.695717
0	C	0.635182	0.803328	0.198801
0	C	0.370433	0.201287	0.199096
0	C	0.201618	0.634658	0.800365
0	C	0.804075	0.369952	0.800356
0	C	0.927029	0.319471	0.260975
0	C	0.0786107	0.685151	0.260991
0	C	0.320105	0.0782853	0.73844
0	C	0.68548	0.926276	0.738761
0	C	0.579673	0.821316	0.242757
0	C	0.42592	0.183243	0.243082
0	C	0.183642	0.579211	0.756328
0	C	0.822049	0.425393	0.75625
0	C	0.932328	0.366551	0.171411
0	C	0.0732878	0.637993	0.17165
0	C	0.367234	0.0729798	0.828002
0	C	0.638264	0.931537	0.828095
0	C	0.574592	0.868116	0.333156
0	C	0.430958	0.136357	0.333254
0	C	0.136912	0.574141	0.665612
0	C	0.868701	0.430441	0.665318
0	C	0.881885	0.395304	0.125068
0	C	0.123712	0.609172	0.125428
0	C	0.396111	0.123357	0.874145
0	C	0.609368	0.881136	0.874011
0	C	0.625133	0.896725	0.379403
0	C	0.380394	0.107724	0.379275
0	C	0.108335	0.624631	0.619205
0	C	0.897199	0.379934	0.618752
0	C	0.826156	0.377467	0.168793
0	C	0.179454	0.627033	0.169038
0	C	0.378339	0.179026	0.830226
0	C	0.627205	0.825484	0.830108
0	C	0.680755	0.879062	0.334576
0	C	0.324789	0.125446	0.334464
0	C	0.125985	0.680198	0.664122
0	C	0.879565	0.324377	0.663733
0	C	0.675525	0.431794	0.489527
0	C	0.33009	0.572777	0.489362
0	C	0.432504	0.32975	0.509186
0	C	0.573158	0.674866	0.509165
0	C	0.83081	0.933452	0.00948358
0	C	0.174833	0.0711728	0.00946568
0	C	0.0715845	0.830238	0.989495
0	C	0.934005	0.174356	0.989554
0	C	0.647683	0.481635	0.434791
0	C	0.357915	0.522934	0.434592
0	C	0.482388	0.357623	0.563824
0	C	0.523277	0.647004	0.563838
0	C	0.858729	0.98335	0.0637982
0	C	0.146932	0.021281	0.0638233
0	C	0.0216912	0.858286	0.935388
0	C	0.983898	0.146298	0.935507
0	C	0.626612	0.52612	0.518554
0	C	0.378964	0.478426	0.518315
0	C	0.526844	0.378736	0.479951
0	C	0.4788	0.625897	0.480029
0	C	0.880521	0.0272915	0.979559
0	C	0.125144	0.977312	0.979642
0	C	0.977818	0.880242	0.019617
0	C	0.0277463	0.124323	0.0198088
0	C	0.633349	0.521611	0.657696
0	C	0.372248	0.482929	0.657464
0	C	0.522266	0.372031	0.340811
0	C	0.48336	0.632585	0.340881
0	C	0.87446	0.0222103	0.840367
0	C	0.131179	0.982376	0.840447
0	C	0.98289	0.874096	0.158797
0	C	0.0226605	0.130493	0.158959
0	C	0.661266	0.472402	0.71285
0	C	0.344328	0.532128	0.712657
0	C	0.473013	0.344105	0.285765
0	C	0.532608	0.660506	0.285774
0	C	0.846336	0.973026	0.785631
0	C	0.1593	0.031546	0.78565
0	C	0.0319637	0.845697	0.213295
0	C	0.973568	0.158898	0.213389
0	C	0.682042	0.427551	0.629521
0	C	0.323552	0.576989	0.629354
0	C	0.428183	0.323276	0.369201
0	C	0.57745	0.681342	0.369173
0	C	0.824789	0.928713	0.869456
0	C	0.180856	0.0758863	0.86944
0	C	0.0762929	0.824112	0.129433
0	C	0.929255	0.18047	0.1295
0	C	0.627294	0.273372	0.0717746
0	C	0.378334	0.731153	0.0715089
0	C	0.273971	0.377666	0.927178
0	C	0.73165	0.626878	0.927153
0	C	0.880008	0.775603	0.42742
0	C	0.125571	0.228984	0.427409
0	C	0.229347	0.879202	0.571236
0	C	0.77625	0.125353	0.571391
0	C	0.634042	0.319294	0.979048
0	C	0.37159	0.685205	0.97887
0	C	0.319976	0.371057	0.0198559
0	C	0.685696	0.633585	0.0199312
0	C	0.873823	0.82182	0.519595
0	C	0.131851	0.182816	0.519677
0	C	0.183091	0.872911	0.479091
0	C	0.822478	0.131636	0.479159
0	C	0.595956	0.324936	0.869445
0	C	0.409637	0.679571	0.869182
0	C	0.325545	0.409146	0.12942
0	C	0.680075	0.595495	0.12947
0	C	0.91224	0.827493	0.628599
0	C	0.0934318	0.17709	0.628654
0	C	0.177364	0.91121	0.369969
0	C	0.828213	0.0932927	0.370127
0	C	0.550549	0.28442	0.850241
0	C	0.455016	0.720109	0.849859
0	C	0.284864	0.454396	0.148632
0	C	0.720639	0.550131	0.148568
0	C	0.957468	0.786759	0.647623
0	C	0.0480902	0.217708	0.647565
0	C	0.218057	0.956458	0.350854
0	C	0.787541	0.0480167	0.351142
0	C	0.543985	0.237743	0.940486
0	C	0.461609	0.766787	0.940111
0	C	0.23812	0.460832	0.0583934
0	C	0.767333	0.543594	0.0582255
0	C	0.963475	0.739797	0.557976
0	C	0.0419858	0.26462	0.557815
0	C	0.265044	0.962599	0.440528
0	C	0.740554	0.0419154	0.440818
0	C	0.582141	0.232075	0.0495541
0	C	0.423478	0.772459	0.0492083
0	C	0.232527	0.422683	0.949371
0	C	0.772982	0.581746	0.949219
0	C	0.924925	0.734049	0.449654
0	C	0.0805413	0.270428	0.449516
0	C	0.270866	0.924136	0.548922
0	C	0.734738	0.080409	0.549164
0	C	0.589583	0.16237	0.444178
0	C	0.416017	0.842226	0.443944
0	C	0.162768	0.415202	0.55499
0	C	0.842837	0.589362	0.554898
0	C	0.916748	0.664393	0.0546839
0	C	0.0888432	0.340173	0.0545932
0	C	0.340636	0.916093	0.944029
0	C	0.665002	0.0885014	0.944149
0	C	0.551765	0.195542	0.526629
0	C	0.453816	0.809061	0.526438
0	C	0.19592	0.452994	0.472454
0	C	0.809658	0.551593	0.472384
0	C	0.954362	0.697547	0.971719
0	C	0.0512548	0.306992	0.971648
0	C	0.307388	0.95367	0.026863
0	C	0.698253	0.0509101	0.0269597
0	C	0.513378	0.167491	0.615546
0	C	0.492173	0.837122	0.615431
0	C	0.167786	0.491318	0.383576
0	C	0.837759	0.513247	0.383479
0	C	0.992587	0.66949	0.882473
0	C	0.013011	0.335016	0.882375
0	C	0.33544	0.991954	0.115996
0	C	0.670226	0.0125993	0.116032
0	C	0.512409	0.106101	0.624547
0	C	0.493136	0.89851	0.624422
0	C	0.106326	0.492293	0.374786
0	C	0.899214	0.512255	0.374612
0	C	0.993523	0.608107	0.873468
0	C	0.0120574	0.396396	0.8733
0	C	0.396879	0.992938	0.125102
0	C	0.608784	0.011604	0.125165
0	C	0.549979	0.0727585	0.543459
0	C	0.45557	0.931843	0.543292
0	C	0.073003	0.454753	0.45597
0	C	0.932571	0.549774	0.45579
0	C	0.956007	0.574783	0.954723
0	C	0.0495526	0.429752	0.95455
0	C	0.430288	0.95545	0.0439731
0	C	0.575363	0.0490914	0.044069
0	C	0.588108	0.100581	0.453632
0	C	0.417463	0.904016	0.453438
0	C	0.100911	0.416648	0.545673
0	C	0.904691	0.587875	0.545552
0	C	0.918102	0.602613	0.0450289
0	C	0.0874529	0.401953	0.044909
0	C	0.402495	0.91753	0.953685
0	C	0.60315	0.0870298	0.95379
0	H	0.732784	0.313575	0.523513
0	H	0.272946	0.691074	0.523369
0	H	0.314345	0.272239	0.475386
0	H	0.691335	0.732378	0.475398
0	H	0.773174	0.81533	0.97733
0	H	0.232467	0.189288	0.97733
0	H	0.189792	0.772544	0.021519
0	H	0.81584	0.232125	0.0214755
0	H	0.784602	0.368629	0.482296
0	H	0.221082	0.636036	0.482285
0	H	0.369558	0.220608	0.516719
0	H	0.636109	0.783993	0.51678
0	H	0.72139	0.870412	0.0188242
0	H	0.284246	0.134209	0.0188865
0	H	0.134609	0.72085	0.980115
0	H	0.871055	0.283784	0.980016
0	H	0.640957	0.393445	0.223727
0	H	0.364608	0.611078	0.223486
0	H	0.394176	0.364199	0.775087
0	H	0.611497	0.640352	0.77496
0	H	0.865839	0.895666	0.274945
0	H	0.139741	0.108987	0.274853
0	H	0.109254	0.865011	0.723818
0	H	0.896335	0.139537	0.723916
0	H	0.72553	0.332643	0.111839
0	H	0.280066	0.671925	0.111693
0	H	0.33349	0.2796	0.887079
0	H	0.672147	0.724943	0.887085
0	H	0.781711	0.834831	0.388687
0	H	0.223859	0.169756	0.388681
0	H	0.170151	0.781006	0.610152
0	H	0.835466	0.223544	0.610131
0	H	0.643538	0.280719	0.410143
0	H	0.362128	0.723872	0.409874
0	H	0.281282	0.36139	0.588806
0	H	0.724349	0.643181	0.588786
0	H	0.863192	0.782848	0.0893002
0	H	0.14242	0.221739	0.0893014
0	H	0.222139	0.862504	0.909426
0	H	0.783517	0.14211	0.909538
0	H	0.581229	0.272417	0.305504
0	H	0.424423	0.732178	0.305207
0	H	0.272962	0.42364	0.693441
0	H	0.732686	0.580921	0.69336
0	H	0.925579	0.774369	0.193526
0	H	0.0800182	0.230234	0.193479
0	H	0.230622	0.924832	0.80507
0	H	0.775031	0.0797867	0.805274
0	H	0.684947	0.119562	0.27343
0	H	0.320665	0.885	0.273074
0	H	0.120098	0.319755	0.725505
0	H	0.885553	0.684769	0.725603
0	H	0.821932	0.621668	0.227141
0	H	0.183627	0.382945	0.227179
0	H	0.383504	0.821382	0.771628
0	H	0.622098	0.183206	0.771764
0	H	0.710136	0.193336	0.0797458
0	H	0.295512	0.8112	0.0794032
0	H	0.193978	0.294756	0.91926
0	H	0.811674	0.709748	0.919325
0	H	0.797243	0.695599	0.420914
0	H	0.2083	0.309025	0.420957
0	H	0.309537	0.796617	0.577883
0	H	0.696075	0.207934	0.577969
0	H	0.866707	0.264281	0.37286
0	H	0.138958	0.740391	0.372659
0	H	0.264976	0.138554	0.626305
0	H	0.740717	0.866063	0.626717
0	H	0.639719	0.766587	0.128991
0	H	0.365928	0.23807	0.129391
0	H	0.238305	0.639188	0.870432
0	H	0.76743	0.365441	0.870537
0	H	0.966312	0.296718	0.296453
0	H	0.0393328	0.707935	0.2964
0	H	0.29727	0.0390551	0.703111
0	H	0.708331	0.965528	0.703585
0	H	0.540304	0.798649	0.207515
0	H	0.465308	0.205929	0.207988
0	H	0.206272	0.539871	0.791744
0	H	0.799457	0.464735	0.79177
0	H	0.97579	0.380404	0.137001
0	H	0.0298159	0.62413	0.13733
0	H	0.381028	0.0295592	0.862545
0	H	0.624416	0.97494	0.86264
0	H	0.531185	0.881843	0.368193
0	H	0.474347	0.12258	0.368306
0	H	0.123222	0.530782	0.630447
0	H	0.882391	0.473792	0.6301
0	H	0.885896	0.431434	0.053849
0	H	0.119678	0.572965	0.0544269
0	H	0.432289	0.119337	0.945335
0	H	0.57311	0.885117	0.945
0	H	0.621276	0.932565	0.451458
0	H	0.384218	0.0718053	0.451131
0	H	0.0725403	0.620789	0.546932
0	H	0.932917	0.383758	0.546271
0	H	0.787138	0.400606	0.133307
0	H	0.218453	0.603835	0.133649
0	H	0.40156	0.217995	0.865582
0	H	0.603969	0.786497	0.865284
0	H	0.719852	0.90205	0.370167
0	H	0.285674	0.102441	0.369868
0	H	0.103006	0.719249	0.628386
0	H	0.90247	0.285305	0.627875
0	H	0.642478	0.485665	0.326358
0	H	0.363121	0.518921	0.326155
0	H	0.486471	0.362813	0.672248
0	H	0.519211	0.641821	0.67227
0	H	0.863427	0.987913	0.172305
0	H	0.142237	0.016737	0.172335
0	H	0.0171865	0.862947	0.826912
0	H	0.988438	0.141628	0.827047
0	H	0.604693	0.564436	0.475206
0	H	0.400843	0.440091	0.474953
0	H	0.565205	0.400656	0.523221
0	H	0.440438	0.603995	0.523326
0	H	0.902463	0.0656222	0.0226933
0	H	0.103217	0.938984	0.0227862
0	H	0.93955	0.902396	0.976662
0	H	0.0659965	0.102124	0.97688
0	H	0.61697	0.556539	0.722842
0	H	0.388623	0.447988	0.722572
0	H	0.557187	0.388429	0.27559
0	H	0.448429	0.616184	0.27571
0	H	0.891492	0.0567204	0.774916
0	H	0.114139	0.947859	0.775028
0	H	0.948427	0.891247	0.224319
0	H	0.0570957	0.11334	0.224569
0	H	0.666948	0.469118	0.821213
0	H	0.338641	0.535395	0.821018
0	H	0.469673	0.33845	0.177404
0	H	0.535932	0.666149	0.177409
0	H	0.84117	0.969356	0.677188
0	H	0.164453	0.0351951	0.67721
0	H	0.0356184	0.840297	0.321664
0	H	0.969909	0.16429	0.321767
0	H	0.703407	0.389027	0.673404
0	H	0.302163	0.615495	0.673264
0	H	0.389621	0.301904	0.325402
0	H	0.616	0.702726	0.32533
0	H	0.803321	0.89019	0.825815
0	H	0.202325	0.114393	0.825723
0	H	0.114769	0.802495	0.172964
0	H	0.890753	0.202065	0.172971
0	H	0.670011	0.350793	0.989699
0	H	0.335651	0.653682	0.989602
0	H	0.351592	0.335203	0.00921155
0	H	0.654148	0.669504	0.00935154
0	H	0.83804	0.85352	0.508984
0	H	0.167699	0.151181	0.509145
0	H	0.151403	0.837132	0.489795
0	H	0.854148	0.167443	0.48975
0	H	0.602282	0.3609	0.798486
0	H	0.403304	0.643589	0.798281
0	H	0.361581	0.40294	0.200337
0	H	0.644066	0.601769	0.200429
0	H	0.906347	0.863653	0.699238
0	H	0.099396	0.140956	0.699328
0	H	0.141183	0.905226	0.299337
0	H	0.864376	0.0992683	0.299429
0	H	0.520872	0.288748	0.764911
0	H	0.484653	0.715796	0.764451
0	H	0.28913	0.484064	0.233946
0	H	0.716321	0.520448	0.233835
0	H	0.987478	0.791205	0.732381
0	H	0.0180619	0.21321	0.732267
0	H	0.213567	0.986375	0.265996
0	H	0.792041	0.0180524	0.266373
0	H	0.509061	0.205588	0.925493
0	H	0.496531	0.79894	0.925047
0	H	0.20585	0.495648	0.0733704
0	H	0.799505	0.50868	0.0730945
0	H	0.998254	0.707461	0.572853
0	H	0.00710647	0.296857	0.572591
0	H	0.297335	0.997411	0.425601
0	H	0.708264	0.0070994	0.425952
0	H	0.576943	0.194769	0.117563
0	H	0.428686	0.809764	0.117221
0	H	0.195173	0.427785	0.881357
0	H	0.81029	0.57656	0.881107
0	H	0.929645	0.696483	0.382232
0	H	0.0757435	0.307954	0.382003
0	H	0.308457	0.928944	0.61636
0	H	0.697146	0.0756209	0.616599
0	H	0.551882	0.243475	0.521203
0	H	0.45372	0.761128	0.521024
0	H	0.243906	0.452898	0.477762
0	H	0.761673	0.551709	0.477711
0	H	0.954226	0.745466	0.976951
0	H	0.0514148	0.259074	0.976904
0	H	0.2594	0.953466	0.0216745
0	H	0.746243	0.0511259	0.0217865
0	H	0.483512	0.193614	0.677204
0	H	0.52201	0.810988	0.67714
0	H	0.193901	0.521128	0.321782
0	H	0.811619	0.483441	0.321743
0	H	0.0223125	0.695597	0.82043
0	H	0.983292	0.30889	0.820378
0	H	0.309213	0.0216476	0.177788
0	H	0.696446	0.982874	0.177791
0	H	0.48208	0.0845656	0.69365
0	H	0.523438	0.920059	0.693573
0	H	0.0847256	0.522569	0.305713
0	H	0.920788	0.481967	0.305518
0	H	0.023726	0.586578	0.804061
0	H	0.981841	0.417894	0.803872
0	H	0.418436	0.0231454	0.19441
0	H	0.58724	0.981369	0.194442
0	H	0.549481	0.0249162	0.549875
0	H	0.456061	0.979684	0.549733
0	H	0.0251079	0.455245	0.449701
0	H	0.980463	0.549261	0.449474
0	H	0.956373	0.526968	0.947984
0	H	0.0491656	0.477565	0.947761
0	H	0.478166	0.955854	0.0508765
0	H	0.527483	0.0486846	0.0509367
0	H	0.616901	0.0742101	0.389833
0	H	0.388656	0.930371	0.389636
0	H	0.0745556	0.387845	0.609475
0	H	0.931066	0.616645	0.609398
0	H	0.889341	0.576259	0.108881
0	H	0.116181	0.428329	0.1088
0	H	0.42893	0.888841	0.889744
0	H	0.57669	0.115698	0.889865
