#******************************************
#
# CIF file created by Zeo++
# Zeo++ is an open source package to
# analyze microporous materials
#
#*******************************************

_cell_length_a		13.0962(0)
_cell_length_b		17.4236(0)
_cell_length_c		29.8875(0)
_cell_angle_alpha		90(0)
_cell_angle_beta		90(0)
_cell_angle_gamma		90(0)

_symmetry_space_group_name_H-M		'P1'
_symmetry_Int_Tables_number		1
_symmetry_cell_setting		Monoclinic

loop_
_symmetry_equiv_pos_as_xyz
'+x,+y,+z'

loop_
_atom_site_label
_atom_site_type_symbol
_atom_site_fract_x
_atom_site_fract_y
_atom_site_fract_z
0	C	0.674345	0.350797	0.158128
0	C	0.839216	0.636645	0.66293
0	C	0.340059	0.851043	0.353188
0	C	0.174455	0.138749	0.857891
0	C	0.783545	0.374463	0.154509
0	C	0.730068	0.612319	0.660186
0	C	0.230943	0.875461	0.355872
0	C	0.283825	0.115503	0.861497
0	H	0.794997	0.433491	0.141116
0	H	0.718828	0.55295	0.647273
0	H	0.219746	0.934814	0.368777
0	H	0.295535	0.0564693	0.874812
0	C	0.856724	0.341271	0.189312
0	C	0.657392	0.645811	0.695113
0	C	0.158347	0.84206	0.320877
0	C	0.356824	0.14901	0.826715
0	H	0.824842	0.296911	0.21209
0	H	0.689458	0.690789	0.717416
0	H	0.190439	0.797121	0.298561
0	H	0.324696	0.193447	0.804052
0	C	0.937899	0.388584	0.210495
0	C	0.576757	0.598839	0.716947
0	C	0.0777855	0.88908	0.299009
0	C	0.438064	0.101934	0.8054
0	C	0.948585	0.384694	0.257265
0	C	0.567742	0.602844	0.763783
0	C	0.0676661	0.88414	0.252245
0	C	0.449397	0.10673	0.758686
0	H	0.898676	0.347865	0.276988
0	H	0.618631	0.639523	0.783109
0	H	0.117654	0.84677	0.232924
0	H	0.400151	0.144342	0.739148
0	C	0.0234869	0.42818	0.278736
0	C	0.493315	0.559698	0.785787
0	C	0.993173	0.927229	0.230233
0	C	0.524052	0.0632401	0.737059
0	H	0.0320749	0.424324	0.314968
0	H	0.486022	0.563687	0.822072
0	H	0.984939	0.922497	0.194013
0	H	0.532974	0.06777	0.700864
0	C	0.0876057	0.476034	0.253764
0	C	0.427932	0.512099	0.761285
0	C	0.928878	0.975765	0.254657
0	C	0.587443	0.0145373	0.761838
0	H	0.146312	0.510223	0.270423
0	H	0.369845	0.47788	0.77833
0	H	0.870572	0.00976355	0.237611
0	H	0.646044	0.980373	0.74509
0	C	0.0768887	0.480029	0.207306
0	C	0.436571	0.508346	0.714741
0	C	0.938805	0.980647	0.30112
0	C	0.576271	0.00978241	0.808252
0	H	0.126331	0.517941	0.187946
0	H	0.385717	0.471001	0.695706
0	H	0.888935	0.0188809	0.320062
0	H	0.625288	0.97136	0.827478
0	C	0.00229779	0.436457	0.185513
0	C	0.510821	0.551474	0.692427
0	C	0.0129764	0.93747	0.323448
0	C	0.501836	0.0533074	0.830189
0	H	0.994543	0.43989	0.149139
0	H	0.517216	0.548107	0.656008
0	H	0.0200441	0.94155	0.359823
0	H	0.493703	0.0493372	0.866527
0	C	0.796184	0.228395	0.0849497
0	C	0.716121	0.757199	0.590288
0	C	0.215358	0.730899	0.426131
0	C	0.29667	0.26113	0.93142
0	C	0.818503	0.145159	0.0772238
0	C	0.695178	0.840683	0.582691
0	C	0.194227	0.647439	0.433738
0	C	0.319014	0.344301	0.939354
0	C	0.792905	0.0995078	0.0413004
0	C	0.723148	0.886572	0.547203
0	C	0.220744	0.601805	0.469551
0	C	0.293459	0.389656	0.975414
0	H	0.749418	0.122224	0.0130684
0	H	0.767149	0.863812	0.519173
0	H	0.263899	0.624737	0.497787
0	H	0.250202	0.366641	0.00363463
0	C	0.824932	0.0218688	0.0420557
0	C	0.692981	0.964613	0.548286
0	C	0.190201	0.523844	0.468552
0	C	0.325233	0.467358	0.974812
0	H	0.806669	0.984926	0.0134228
0	H	0.714009	0.00188674	0.520369
0	H	0.20993	0.486841	0.496781
0	H	0.306844	0.504098	0.00353075
0	C	0.879134	0.992715	0.0781598
0	C	0.637734	0.993806	0.584085
0	C	0.136148	0.494452	0.432465
0	C	0.379267	0.496816	0.938743
0	H	0.902279	0.932127	0.078921
0	H	0.615946	0.0546834	0.584991
0	H	0.113896	0.433657	0.43164
0	H	0.402298	0.557441	0.93811
0	C	0.90511	0.0397205	0.115165
0	C	0.609109	0.946493	0.620557
0	C	0.109295	0.541423	0.395579
0	C	0.405201	0.450118	0.9016
0	H	0.947487	0.015894	0.143443
0	H	0.565882	0.970248	0.648598
0	H	0.067212	0.51738	0.367279
0	H	0.447371	0.474282	0.87335
0	C	0.875151	0.115498	0.114037
0	C	0.637787	0.870444	0.619255
0	C	0.138214	0.617428	0.396834
0	C	0.375411	0.374291	0.902551
0	C	0.894254	0.178315	0.147223
0	C	0.617117	0.807557	0.652214
0	C	0.118908	0.680062	0.363548
0	C	0.394306	0.311772	0.869155
0	C	0.501582	0.398906	0.151272
0	C	0.0119132	0.587791	0.656893
0	C	0.512855	0.900052	0.358832
0	C	0.00199295	0.0901415	0.86491
0	H	0.495188	0.369114	0.183972
0	H	0.0181311	0.618509	0.689307
0	H	0.518798	0.869307	0.32642
0	H	0.995363	0.11976	0.832159
0	C	0.45275	0.48127	0.151505
0	C	0.0602356	0.505326	0.658017
0	C	0.561024	0.982582	0.357571
0	C	0.953243	0.00773178	0.864881
0	C	0.345962	0.467231	0.173455
0	C	0.166993	0.519781	0.679989
0	C	0.667553	0.968217	0.335371
0	C	0.846195	0.0216474	0.843106
0	H	0.351798	0.438309	0.206295
0	H	0.161159	0.549873	0.712465
0	H	0.661419	0.938226	0.302867
0	H	0.851589	0.0503811	0.810199
0	H	0.306229	0.522015	0.179801
0	H	0.206246	0.465079	0.687108
0	H	0.706714	0.0229574	0.328261
0	H	0.806537	0.966796	0.836926
0	C	0.287432	0.418605	0.138449
0	C	0.226351	0.56679	0.644471
0	C	0.727319	0.92116	0.370737
0	C	0.787781	0.0702952	0.878154
0	H	0.266093	0.361809	0.151825
0	H	0.248609	0.623804	0.657216
0	H	0.749227	0.864121	0.357927
0	H	0.765918	0.126945	0.864739
0	H	0.215407	0.446256	0.128305
0	H	0.297905	0.538195	0.634555
0	H	0.799105	0.949607	0.380471
0	H	0.715989	0.0425336	0.888524
0	C	0.363537	0.412616	0.098843
0	C	0.150448	0.57201	0.604775
0	C	0.651938	0.915996	0.410632
0	C	0.864325	0.0766647	0.917579
0	H	0.327972	0.39877	0.0667307
0	H	0.186222	0.584734	0.572537
0	H	0.688191	0.903398	0.442783
0	H	0.829104	0.0907025	0.949738
0	C	0.447965	0.355363	0.113009
0	C	0.0662731	0.630008	0.618321
0	C	0.567714	0.857917	0.397303
0	C	0.948449	0.13393	0.903116
0	H	0.500925	0.342797	0.0852618
0	H	0.0136386	0.642193	0.590413
0	H	0.515465	0.845724	0.42534
0	H	0.00146323	0.146952	0.93077
0	H	0.416193	0.300141	0.124389
0	H	0.0983803	0.685377	0.629284
0	H	0.599802	0.802585	0.386279
0	H	0.916397	0.18898	0.891579
0	C	0.421172	0.4922	0.100468
0	C	0.0924091	0.492674	0.607185
0	C	0.593728	0.995258	0.408339
0	C	0.922123	0.997151	0.916001
0	C	0.349948	0.559901	0.0909911
0	C	0.162872	0.424008	0.599019
0	C	0.664361	0.0638642	0.416377
0	C	0.851128	0.929402	0.925697
0	H	0.312996	0.553546	0.0582725
0	H	0.204527	0.430079	0.567529
0	H	0.706201	0.0577205	0.447816
0	H	0.813904	0.936125	0.958324
0	H	0.392132	0.614398	0.0907568
0	H	0.119178	0.370286	0.597251
0	H	0.620825	0.117641	0.418192
0	H	0.893674	0.875085	0.926212
0	H	0.289478	0.566472	0.116073
0	H	0.219465	0.415805	0.625654
0	H	0.72082	0.0718452	0.389664
0	H	0.790929	0.922247	0.90055
0	C	0.509962	0.496447	0.067366
0	C	0.00435466	0.487807	0.573746
0	C	0.506087	0.00016805	0.441996
0	C	0.0111305	0.993012	0.949007
0	H	0.483833	0.489845	0.032831
0	H	0.0316953	0.492754	0.539295
0	H	0.533857	0.994964	0.476375
0	H	0.985134	0.999715	0.983563
0	H	0.568005	0.452089	0.073226
0	H	0.94674	0.532773	0.578722
0	H	0.448226	0.955372	0.437087
0	H	0.069354	0.0371833	0.943072
0	H	0.549685	0.552047	0.0700492
0	H	0.963878	0.43263	0.576991
0	H	0.465913	0.0554692	0.438918
0	H	0.0506598	0.937326	0.946329
0	C	0.51905	0.543624	0.174157
0	C	0.993483	0.443546	0.680981
0	C	0.493929	0.0443385	0.33477
0	C	0.0191896	0.945066	0.842229
0	C	0.572982	0.51732	0.217047
0	C	0.939779	0.470488	0.723805
0	C	0.439961	0.0176063	0.291951
0	C	0.0729699	0.971078	0.799199
0	C	0.529301	0.465992	0.247525
0	C	0.983159	0.522688	0.75386
0	C	0.482796	0.965217	0.261868
0	C	0.0297675	0.0229201	0.768883
0	H	0.452387	0.442997	0.241986
0	H	0.0597929	0.545991	0.748027
0	H	0.559125	0.941381	0.267701
0	H	0.953188	0.0464271	0.774584
0	C	0.583451	0.443486	0.285639
0	C	0.929078	0.545718	0.791899
0	C	0.428493	0.942627	0.223797
0	C	0.0839742	0.0453677	0.730759
0	H	0.549575	0.40184	0.308472
0	H	0.962808	0.587948	0.814416
0	H	0.461776	0.900325	0.201215
0	H	0.0504185	0.0873997	0.708075
0	C	0.680662	0.473123	0.294105
0	C	0.832188	0.515802	0.800709
0	C	0.331873	0.973024	0.214996
0	C	0.180791	0.0152047	0.722077
0	H	0.72278	0.455424	0.323715
0	H	0.790127	0.533892	0.830252
0	H	0.289546	0.955153	0.185479
0	H	0.223102	0.0330714	0.692549
0	C	0.723627	0.526015	0.264354
0	C	0.7895	0.46208	0.771389
0	C	0.289739	0.0269466	0.244345
0	C	0.223102	0.961562	0.751554
0	H	0.798775	0.550313	0.271032
0	H	0.714599	0.437556	0.778316
0	H	0.215158	0.0519728	0.237374
0	H	0.29773	0.93658	0.744621
0	C	0.670044	0.547944	0.226074
0	C	0.843038	0.439594	0.733204
0	C	0.343482	0.0490062	0.28256
0	C	0.169494	0.939741	0.789858
0	H	0.703165	0.589457	0.202833
0	H	0.810184	0.397396	0.710323
0	H	0.310925	0.0912642	0.305485
0	H	0.202247	0.897754	0.812898
0	C	0.462583	0.618409	0.183784
0	C	0.049632	0.368627	0.690685
0	C	0.549588	0.119509	0.325112
0	C	0.962627	0.870153	0.832838
0	C	0.477884	0.68211	0.155944
0	C	0.0346306	0.304797	0.662897
0	C	0.53409	0.18333	0.352868
0	C	0.977814	0.806401	0.86068
0	H	0.530267	0.677633	0.127573
0	H	0.982245	0.308975	0.634513
0	H	0.481955	0.178956	0.381325
0	H	0.0301863	0.810735	0.889064
0	C	0.427347	0.751137	0.164637
0	C	0.085734	0.235987	0.671578
0	C	0.584271	0.252464	0.344024
0	C	0.927337	0.737324	0.851979
0	H	0.440519	0.800133	0.142625
0	H	0.0727406	0.186777	0.649787
0	H	0.570886	0.301624	0.365812
0	H	0.940442	0.688237	0.873939
0	C	0.362011	0.757302	0.201424
0	C	0.151436	0.230192	0.70827
0	C	0.649429	0.25865	0.307168
0	C	0.862046	0.731114	0.815184
0	H	0.322922	0.811086	0.20844
0	H	0.191124	0.176631	0.715219
0	H	0.688214	0.312512	0.300023
0	H	0.823083	0.677285	0.808127
0	C	0.348149	0.694324	0.22978
0	C	0.164886	0.293222	0.736609
0	C	0.663511	0.195591	0.278916
0	C	0.848141	0.79412	0.786861
0	H	0.298886	0.699322	0.258976
0	H	0.214342	0.288443	0.765759
0	H	0.71261	0.20065	0.249661
0	H	0.798805	0.789123	0.757696
0	C	0.39811	0.62509	0.221074
0	C	0.114203	0.36217	0.727951
0	C	0.613877	0.126284	0.287777
0	C	0.898156	0.863348	0.795547
0	H	0.386524	0.576443	0.243607
0	H	0.125474	0.410878	0.75046
0	H	0.625611	0.0775056	0.265375
0	H	0.886675	0.911891	0.772937
0	C	0.804345	0.798534	0.13352
0	C	0.709656	0.192051	0.637401
0	C	0.206967	0.29901	0.378173
0	C	0.305849	0.689338	0.882506
0	C	0.731832	0.781714	0.170715
0	C	0.782409	0.208629	0.674552
0	C	0.27995	0.281652	0.341226
0	C	0.233375	0.706129	0.845282
0	H	0.700203	0.72249	0.170206
0	H	0.814078	0.267873	0.674179
0	H	0.310533	0.222115	0.341733
0	H	0.201951	0.765401	0.845726
0	C	0.748512	0.823741	0.214922
0	C	0.765445	0.166254	0.718643
0	C	0.264575	0.32408	0.297045
0	C	0.249711	0.663877	0.801129
0	H	0.809287	0.86837	0.215969
0	H	0.704712	0.121582	0.719411
0	H	0.204519	0.369245	0.295999
0	H	0.310434	0.619217	0.800119
0	C	0.73715	0.781497	0.257879
0	C	0.776217	0.207962	0.761805
0	C	0.275713	0.282182	0.253964
0	C	0.237974	0.705698	0.758049
0	C	0.64359	0.751247	0.272171
0	C	0.869491	0.238241	0.776422
0	C	0.369121	0.251887	0.239526
0	C	0.144269	0.735818	0.743831
0	H	0.574571	0.759399	0.252136
0	H	0.938685	0.23076	0.756399
0	H	0.438219	0.259592	0.259592
0	H	0.0754651	0.727918	0.764043
0	C	0.638963	0.709533	0.312076
0	C	0.873594	0.279052	0.816656
0	C	0.373509	0.210776	0.199405
0	C	0.139186	0.77698	0.703743
0	H	0.566081	0.685739	0.322866
0	H	0.946241	0.302949	0.827663
0	H	0.446225	0.186777	0.188562
0	H	0.0661924	0.800671	0.693011
0	C	0.727057	0.697455	0.33753
0	C	0.785314	0.290168	0.842134
0	C	0.285404	0.199434	0.173849
0	C	0.226987	0.788645	0.678029
0	H	0.723193	0.663893	0.368178
0	H	0.788852	0.322831	0.873122
0	H	0.289167	0.166567	0.142943
0	H	0.222777	0.821669	0.647196
0	C	0.820436	0.727908	0.323282
0	C	0.692153	0.2599	0.827491
0	C	0.192116	0.229759	0.188303
0	C	0.320521	0.75839	0.692223
0	H	0.889832	0.718515	0.342724
0	H	0.622542	0.268693	0.846891
0	H	0.122631	0.220738	0.168857
0	H	0.389735	0.767572	0.672613
0	C	0.825635	0.770181	0.283682
0	C	0.68747	0.218589	0.787539
0	C	0.187157	0.271411	0.22813
0	C	0.326145	0.716596	0.731984
0	H	0.898733	0.794013	0.272865
0	H	0.614526	0.194944	0.776413
0	H	0.114162	0.295226	0.239083
0	H	0.399336	0.692797	0.742712
0	C	0.594662	0.916504	0.12228
0	C	0.920195	0.0741367	0.626079
0	C	0.41983	0.414784	0.389993
0	C	0.0963558	0.571691	0.89409
0	C	0.578048	0.000770005	0.116386
0	C	0.935816	0.989815	0.619761
0	C	0.436065	0.499005	0.396462
0	C	0.0793457	0.487474	0.900047
0	C	0.529918	0.0391079	0.0820601
0	C	0.982617	0.951544	0.585049
0	C	0.483314	0.536827	0.43123
0	C	0.0311162	0.449379	0.934436
0	H	0.497508	0.0089259	0.0532629
0	H	0.0146754	0.98187	0.556252
0	H	0.515384	0.506081	0.459891
0	H	0.998953	0.479758	0.963225
0	C	0.523506	0.120154	0.085069
0	C	0.988167	0.870427	0.587685
0	C	0.489389	0.617947	0.428805
0	C	0.0242127	0.368348	0.931487
0	H	0.484783	0.151514	0.0583464
0	H	0.0256235	0.839184	0.560572
0	H	0.527161	0.648862	0.455972
0	H	0.985286	0.337172	0.958236
0	C	0.565263	0.159202	0.121092
0	C	0.947159	0.831185	0.62382
0	C	0.448532	0.657621	0.392796
0	C	0.0656778	0.329078	0.895484
0	H	0.560656	0.221991	0.123155
0	H	0.951303	0.768353	0.625665
0	H	0.453112	0.720461	0.391097
0	H	0.060744	0.266296	0.893488
0	C	0.61466	0.119627	0.156466
0	C	0.898927	0.870676	0.659533
0	C	0.399958	0.618575	0.356999
0	C	0.115141	0.368404	0.860027
0	H	0.645931	0.151885	0.184801
0	H	0.867905	0.838333	0.687873
0	H	0.369166	0.651295	0.328733
0	H	0.146121	0.335911	0.831707
0	C	0.620159	0.040888	0.15367
0	C	0.894005	0.949486	0.657018
0	C	0.394434	0.53976	0.359313
0	C	0.121009	0.447144	0.862741
0	C	0.665054	0.984516	0.185876
0	C	0.849642	0.00566749	0.68951
0	C	0.349593	0.483959	0.326733
0	C	0.16575	0.503339	0.830391
0	C	0.865888	0.749118	0.062729
0	C	0.645724	0.241862	0.56713
0	C	0.143493	0.250445	0.448913
0	C	0.366442	0.73852	0.953547
0	H	0.935599	0.778635	0.0747819
0	H	0.576404	0.212236	0.579516
0	H	0.0741495	0.279942	0.436456
0	H	0.436329	0.709015	0.941679
0	C	0.887279	0.665528	0.0456048
0	C	0.623492	0.325224	0.549852
0	C	0.121524	0.167114	0.466374
0	C	0.387463	0.822153	0.970746
0	C	0.979556	0.676628	0.0130411
0	C	0.530926	0.313362	0.517484
0	C	0.0290597	0.178941	0.498789
0	C	0.479253	0.811179	0.00357913
0	H	0.0440038	0.706733	0.0290771
0	H	0.4672	0.282759	0.533739
0	H	0.965025	0.209168	0.482532
0	H	0.544112	0.78131	0.987722
0	H	0.00990487	0.620901	0.00154259
0	H	0.499872	0.368893	0.506096
0	H	0.998518	0.123341	0.510358
0	H	0.509039	0.866986	0.0152471
0	C	0.933941	0.722242	0.973236
0	C	0.576476	0.268075	0.477543
0	C	0.0745554	0.224697	0.538577
0	C	0.433227	0.765354	0.0432165
0	H	0.944154	0.691128	0.94128
0	H	0.565859	0.299275	0.445682
0	H	0.0641462	0.19373	0.57053
0	H	0.442847	0.796415	0.0752312
0	H	0.971529	0.778159	0.96863
0	H	0.539328	0.212019	0.472878
0	H	0.0372036	0.280706	0.543107
0	H	0.470962	0.709513	0.0478899
0	C	0.819547	0.730323	0.985565
0	C	0.690974	0.260458	0.489765
0	C	0.189014	0.232468	0.526284
0	C	0.319029	0.757122	0.030585
0	H	0.769481	0.742215	0.957051
0	H	0.74093	0.248631	0.461225
0	H	0.238969	0.244577	0.554791
0	H	0.268634	0.745139	0.0589759
0	C	0.812674	0.790603	0.0235592
0	C	0.698465	0.200334	0.52783
0	C	0.196197	0.292363	0.488092
0	C	0.312787	0.696893	0.99256
0	H	0.73265	0.804775	0.0318822
0	H	0.77866	0.186377	0.53595
0	H	0.276328	0.306471	0.479935
0	H	0.232901	0.682597	0.984048
0	H	0.850644	0.844813	0.0147756
0	H	0.660537	0.146052	0.519201
0	H	0.158064	0.34661	0.496662
0	H	0.350776	0.642729	0.00143567
0	C	0.796565	0.652646	0.0109238
0	C	0.713726	0.338315	0.514978
0	C	0.211938	0.154495	0.501237
0	C	0.296202	0.834802	0.00520115
0	C	0.689181	0.650827	0.0309064
0	C	0.821307	0.340461	0.534727
0	C	0.319444	0.152112	0.481411
0	C	0.189018	0.836586	0.985016
0	H	0.674782	0.698018	0.0544816
0	H	0.836269	0.293232	0.5582
0	H	0.334444	0.198998	0.457715
0	H	0.174799	0.789416	0.961412
0	H	0.675886	0.597265	0.0496563
0	H	0.834509	0.39402	0.553453
0	H	0.332324	0.0982756	0.462938
0	H	0.175862	0.890178	0.966276
0	H	0.631073	0.654342	0.00467441
0	H	0.879117	0.337117	0.508347
0	H	0.377409	0.155732	0.50771
0	H	0.130682	0.833043	0.0111594
0	C	0.808428	0.582487	0.980573
0	C	0.701071	0.408348	0.484588
0	C	0.199506	0.0847023	0.531826
0	C	0.30748	0.904887	0.0356542
0	H	0.781992	0.530091	0.997314
0	H	0.728705	0.460745	0.500964
0	H	0.225808	0.0320642	0.515313
0	H	0.282036	0.957365	0.0187228
0	H	0.887557	0.572127	0.970306
0	H	0.621531	0.418992	0.475011
0	H	0.120216	0.07478	0.54202
0	H	0.386278	0.914881	0.0465054
0	H	0.763059	0.589053	0.95002
0	H	0.744932	0.401368	0.45365
0	H	0.244663	0.091526	0.562416
0	H	0.260914	0.898449	0.0658699
0	C	0.904472	0.60653	0.0835358
0	C	0.606073	0.384643	0.587574
0	C	0.104419	0.107375	0.428757
0	C	0.405125	0.881264	0.932875
0	C	0.949965	0.53039	0.067885
0	C	0.559819	0.460201	0.571389
0	C	0.0592506	0.0313999	0.44497
0	C	0.450008	0.957603	0.948621
0	C	0.0557363	0.519325	0.0645888
0	C	0.453998	0.470112	0.567146
0	C	0.953576	0.0208742	0.449394
0	C	0.555692	0.968723	0.952364
0	H	0.108497	0.565911	0.0720802
0	H	0.401702	0.423466	0.575146
0	H	0.900797	0.0673589	0.441718
0	H	0.608608	0.922074	0.945241
0	C	0.0948418	0.447632	0.0525037
0	C	0.414165	0.540651	0.553313
0	C	0.914365	0.949934	0.462891
0	C	0.594646	0.040488	0.964421
0	H	0.177207	0.439229	0.0510077
0	H	0.331745	0.548105	0.550997
0	H	0.832008	0.942148	0.465251
0	H	0.676985	0.0487885	0.96625
0	C	0.0290845	0.386505	0.0432376
0	C	0.479335	0.601832	0.543341
0	C	0.980053	0.888866	0.472401
0	C	0.528761	0.101727	0.973234
0	H	0.0598158	0.330298	0.0348696
0	H	0.448113	0.657037	0.533258
0	H	0.949337	0.8333	0.48211
0	H	0.559353	0.158006	0.981569
0	C	0.923547	0.397714	0.0456012
0	C	0.584874	0.592077	0.547283
0	C	0.0855003	0.899233	0.468401
0	C	0.423282	0.0904862	0.970447
0	H	0.871002	0.350643	0.0385077
0	H	0.636921	0.639349	0.54
0	H	0.137875	0.851999	0.475373
0	H	0.370711	0.137681	0.977217
0	C	0.884269	0.469008	0.0581898
0	C	0.624828	0.52194	0.561583
0	C	0.124809	0.969781	0.454418
0	C	0.384152	0.0191168	0.957885
0	H	0.801654	0.477223	0.0610531
0	H	0.707393	0.514931	0.56562
0	H	0.207291	0.977189	0.450328
0	H	0.301573	0.0109951	0.954698
0	C	0.967219	0.63833	0.122784
0	C	0.543925	0.352987	0.627011
0	C	0.0417501	0.138578	0.389309
0	C	0.468602	0.849617	0.893766
0	C	0.0570078	0.680832	0.116495
0	C	0.454299	0.310196	0.620995
0	C	0.951822	0.181024	0.39531
0	C	0.557999	0.80672	0.900212
0	H	0.0839347	0.693968	0.0827338
0	H	0.426994	0.296859	0.587322
0	H	0.924545	0.194414	0.428974
0	H	0.584289	0.793123	0.934005
0	C	0.113276	0.706634	0.153272
0	C	0.398694	0.284299	0.657942
0	C	0.895895	0.206615	0.358373
0	C	0.614675	0.78089	0.863552
0	H	0.183833	0.738641	0.14811
0	H	0.328227	0.252081	0.653
0	H	0.82513	0.238462	0.363332
0	H	0.684945	0.748587	0.868848
0	C	0.07974	0.691022	0.196739
0	C	0.432789	0.300091	0.701305
0	C	0.929973	0.19099	0.314991
0	C	0.581992	0.796836	0.820004
0	H	0.123593	0.710715	0.225498
0	H	0.389455	0.280291	0.730188
0	H	0.886473	0.21067	0.286125
0	H	0.625979	0.776848	0.791353
0	C	0.989956	0.649126	0.203276
0	C	0.52239	0.342324	0.707566
0	C	0.0198594	0.149103	0.308723
0	C	0.492779	0.839316	0.813291
0	H	0.963668	0.636623	0.23715
0	H	0.549019	0.355149	0.741346
0	H	0.0464984	0.136391	0.274922
0	H	0.467323	0.852304	0.779355
0	C	0.934586	0.622336	0.166499
0	C	0.577083	0.369222	0.670619
0	C	0.0748523	0.122487	0.345663
0	C	0.436946	0.866049	0.849957
0	H	0.866009	0.587687	0.171744
0	H	0.645507	0.404141	0.675661
0	H	0.143595	0.0879584	0.340557
0	H	0.368636	0.900896	0.844506
0	O	0.61175	0.406667	0.141334
0	O	0.901736	0.580039	0.646935
0	O	0.402741	0.907695	0.36902
0	O	0.11224	0.0826724	0.874753
0	O	0.640977	0.291787	0.174017
0	O	0.872604	0.696611	0.677548
0	O	0.373364	0.790954	0.338713
0	O	0.14065	0.197532	0.841899
0	O	0.748213	0.273511	0.0629161
0	O	0.763533	0.711763	0.568248
0	O	0.261971	0.776483	0.448393
0	O	0.248938	0.215762	0.953376
0	O	0.938377	0.178501	0.182412
0	O	0.571806	0.807432	0.687115
0	O	0.0752869	0.67989	0.32824
0	O	0.438213	0.311894	0.833914
0	O	0.599004	0.565666	0.143071
0	O	0.913119	0.421503	0.650077
0	O	0.413744	0.0660478	0.365815
0	O	0.0993639	0.923131	0.873217
0	H	0.63884	0.519287	0.134462
0	H	0.874225	0.468032	0.640966
0	H	0.375074	0.0194077	0.374858
0	H	0.139419	0.969505	0.881622
0	O	0.794084	0.744461	0.100636
0	O	0.718239	0.24682	0.604813
0	O	0.216087	0.245227	0.411281
0	O	0.295066	0.743177	0.91549
0	O	0.865204	0.850849	0.130785
0	O	0.649532	0.139255	0.634563
0	O	0.146426	0.351597	0.380501
0	O	0.366931	0.637174	0.885217
0	O	0.706914	0.993306	0.221327
0	O	0.80819	0.99655	0.725016
0	O	0.308171	0.493355	0.291236
0	O	0.207024	0.494372	0.794824
0	O	0.573086	0.86328	0.0985272
0	O	0.942744	0.127572	0.602662
0	O	0.442076	0.361061	0.413244
0	O	0.0753276	0.625016	0.917868
0	O	0.805991	0.58394	0.101299
0	O	0.704577	0.407719	0.605127
0	O	0.203036	0.0849168	0.411102
0	O	0.306839	0.903554	0.914803
0	H	0.765419	0.630341	0.109197
0	H	0.745075	0.361371	0.61331
0	H	0.243187	0.13146	0.403029
0	H	0.266601	0.857007	0.906878
0	N	0.868177	0.320602	0.140393
0	N	0.644485	0.665338	0.6461
0	N	0.145248	0.822464	0.36987
0	N	0.368328	0.169439	0.875662
0	N	0.84339	0.245327	0.127913
0	N	0.668179	0.740526	0.633098
0	N	0.168881	0.747316	0.382966
0	N	0.343363	0.244619	0.888283
0	N	0.654354	0.839677	0.187195
0	N	0.859824	0.150585	0.691036
0	N	0.358635	0.338941	0.325003
0	N	0.155665	0.648188	0.828978
0	N	0.649305	0.9101	0.164645
0	N	0.865331	0.0802389	0.668409
0	N	0.364768	0.409202	0.347683
0	N	0.150594	0.577846	0.851615
