#******************************************
#
# CIF file created by Zeo++
# Zeo++ is an open source package to
# analyze microporous materials
#
#*******************************************

_cell_length_a		19.6028(0)
_cell_length_b		19.7722(0)
_cell_length_c		14.7178(0)
_cell_angle_alpha		90(0)
_cell_angle_beta		90(0)
_cell_angle_gamma		121.528(0)

_symmetry_space_group_name_H-M		'P1'
_symmetry_Int_Tables_number		1
_symmetry_cell_setting		Monoclinic

loop_
_symmetry_equiv_pos_as_xyz
'+x,+y,+z'

loop_
_atom_site_label
_atom_site_type_symbol
_atom_site_fract_x
_atom_site_fract_y
_atom_site_fract_z
0	S	0.71127	0.299437	0.754961
0	S	0.721609	0.412281	0.452531
0	S	0.612295	0.304762	0.11023
0	S	0.321268	0.712169	0.273859
0	S	0.315972	0.601384	0.943628
0	S	0.424243	0.704731	0.6064
0	S	0.894806	0.212901	0.514286
0	S	0.810117	0.674782	0.199546
0	S	0.344185	0.121919	0.857684
0	S	0.134973	0.787669	0.0245177
0	S	0.222282	0.334452	0.695714
0	S	0.691085	0.885745	0.352783
0	S	0.613856	0.0139799	0.73254
0	S	0.0101303	0.596615	0.407101
0	S	0.423936	0.400649	0.0710158
0	S	0.419019	0.99836	0.23126
0	S	0.0258472	0.414705	0.907021
0	S	0.611341	0.609421	0.571645
0	O	0.664924	0.246033	0.830217
0	O	0.776656	0.426873	0.528004
0	O	0.601625	0.346083	0.186619
0	O	0.361308	0.764214	0.352156
0	O	0.2624	0.5897	0.0198434
0	O	0.435347	0.663221	0.682397
0	O	0.663586	0.308589	0.685384
0	O	0.708366	0.34883	0.390078
0	O	0.675521	0.355836	0.0458677
0	O	0.374352	0.70501	0.210007
0	O	0.329172	0.663314	0.878972
0	O	0.361267	0.653423	0.542003
0	O	0.928891	0.298463	0.51666
0	O	0.723255	0.622581	0.200457
0	O	0.397044	0.0907053	0.858483
0	O	0.101689	0.702296	0.0251972
0	O	0.30911	0.386808	0.698426
0	O	0.63775	0.91647	0.352019
0	O	0.93063	0.181163	0.574606
0	O	0.844465	0.741448	0.263085
0	O	0.275627	0.084753	0.919311
0	O	0.0993071	0.818081	0.087069
0	O	0.187042	0.266975	0.758107
0	O	0.759016	0.923587	0.41523
0	O	0.60989	0.9431	0.695306
0	O	0.0842197	0.662963	0.368546
0	O	0.356445	0.404275	0.0336194
0	O	0.423058	0.0684097	0.19124
0	O	0.952137	0.348118	0.868125
0	O	0.678831	0.605198	0.535456
0	O	0.583021	0.00606449	0.824565
0	O	0.0162729	0.57381	0.499535
0	O	0.447901	0.431039	0.163135
0	O	0.451138	0.00850233	0.322912
0	O	0.019471	0.437027	0.999557
0	O	0.587456	0.580216	0.664262
0	N	0.761145	0.260364	0.705018
0	N	0.765156	0.498369	0.391552
0	N	0.524733	0.259679	0.0510347
0	N	0.275908	0.752741	0.215932
0	N	0.272067	0.514037	0.885692
0	N	0.512214	0.751072	0.548079
0	N	0.795065	0.165702	0.535692
0	N	0.852703	0.619952	0.215911
0	N	0.398526	0.22099	0.878159
0	N	0.234995	0.835597	0.0435524
0	N	0.179315	0.38891	0.712912
0	N	0.636776	0.786705	0.373741
0	N	0.712482	0.0871225	0.733015
0	N	0.942625	0.626142	0.408278
0	N	0.395426	0.303178	0.0715235
0	N	0.32034	0.926305	0.235101
0	N	0.0942938	0.386282	0.907404
0	N	0.640103	0.706981	0.57033
0	C	0.744936	0.149013	0.804816
0	C	0.882602	0.601349	0.482241
0	C	0.423165	0.270824	0.143975
0	C	0.28844	0.865869	0.308476
0	C	0.15591	0.413079	0.979846
0	C	0.613227	0.740442	0.642401
0	H	0.692718	0.149399	0.836723
0	H	0.879966	0.549852	0.519008
0	H	0.476554	0.322673	0.178136
0	H	0.341003	0.867565	0.342394
0	H	0.159372	0.465624	0.0149141
0	H	0.559785	0.689138	0.677215
0	C	0.803044	0.232352	0.763384
0	C	0.798433	0.573813	0.442814
0	C	0.449045	0.215161	0.103101
0	C	0.231795	0.781314	0.269508
0	C	0.239222	0.439472	0.938516
0	C	0.587618	0.796051	0.600563
0	H	0.836232	0.275917	0.819639
0	H	0.756874	0.568073	0.498952
0	H	0.454694	0.179537	0.158964
0	H	0.197647	0.739257	0.326673
0	H	0.281809	0.445957	0.993778
0	H	0.581759	0.832061	0.655759
0	H	0.850603	0.230889	0.723669
0	H	0.802111	0.621112	0.398249
0	H	0.400452	0.169732	0.0590793
0	H	0.184748	0.781108	0.226964
0	H	0.234443	0.391319	0.894594
0	H	0.636382	0.841021	0.556285
0	C	0.790342	0.282246	0.610468
0	C	0.735825	0.498578	0.298763
0	C	0.522343	0.231532	0.956996
0	C	0.244852	0.724018	0.123056
0	C	0.29799	0.512091	0.791591
0	C	0.514445	0.778411	0.453756
0	H	0.857181	0.315684	0.607953
0	H	0.702839	0.530591	0.296494
0	H	0.489809	0.165343	0.953754
0	H	0.178013	0.688226	0.121706
0	H	0.331349	0.480455	0.788264
0	H	0.547657	0.844567	0.449721
0	H	0.773596	0.324832	0.583073
0	H	0.690941	0.43612	0.276743
0	H	0.584743	0.252387	0.932598
0	H	0.264018	0.68238	0.0989546
0	H	0.341891	0.574268	0.767617
0	H	0.451976	0.758298	0.430195
0	C	0.753343	0.209952	0.546026
0	C	0.803929	0.532563	0.227877
0	C	0.486775	0.264759	0.889444
0	C	0.278058	0.792761	0.0538412
0	C	0.227756	0.476491	0.723431
0	C	0.548624	0.743792	0.386225
0	H	0.690206	0.167597	0.567302
0	H	0.844798	0.51065	0.243784
0	H	0.508158	0.327444	0.908502
0	H	0.341988	0.83656	0.0707684
0	H	0.186936	0.49811	0.740964
0	H	0.526846	0.681138	0.405875
0	H	0.750337	0.23137	0.476561
0	H	0.776337	0.506961	0.160215
0	H	0.51249	0.266751	0.820881
0	H	0.277836	0.767804	0.985472
0	H	0.253175	0.501317	0.654758
0	H	0.522412	0.741362	0.317804
0	C	0.756545	0.0843471	0.573251
0	C	0.937442	0.662343	0.245234
0	C	0.355047	0.259366	0.909576
0	C	0.274988	0.919251	0.0736048
0	C	0.0953987	0.346354	0.745179
0	C	0.679952	0.74862	0.407316
0	H	0.779646	0.0513454	0.535188
0	H	0.972277	0.715897	0.200995
0	H	0.299688	0.236482	0.867461
0	H	0.252318	0.950416	0.0311764
0	H	0.0600391	0.29168	0.702887
0	H	0.735293	0.770612	0.365362
0	H	0.69171	0.0525208	0.555938
0	H	0.962203	0.624348	0.228675
0	H	0.391803	0.323691	0.892444
0	H	0.339569	0.949253	0.0556188
0	H	0.0693792	0.383278	0.728767
0	H	0.642919	0.684074	0.39137
0	C	0.76889	0.0775538	0.67587
0	C	0.954412	0.689711	0.345477
0	C	0.32987	0.247583	0.0107084
0	C	0.263989	0.932933	0.174625
0	C	0.0815282	0.321352	0.846304
0	C	0.705157	0.761797	0.508469
0	H	0.761447	0.0183654	0.688558
0	H	0.0175356	0.740793	0.350213
0	H	0.277934	0.255904	0.0176808
0	H	0.272805	0.993324	0.181167
0	H	0.0188996	0.269887	0.853773
0	H	0.75734	0.753971	0.516232
0	H	0.832011	0.122457	0.69472
0	H	0.915963	0.713488	0.365922
0	H	0.307087	0.184825	0.0309793
0	H	0.200855	0.890172	0.195706
0	H	0.121278	0.29894	0.866102
0	H	0.727542	0.824771	0.527331
0	C	0.736414	0.0468086	0.918537
0	C	0.9899	0.696757	0.592836
0	C	0.329488	0.27814	0.258335
0	C	0.295538	0.96913	0.418844
0	C	0.0510596	0.320962	0.0946694
0	C	0.708838	0.734566	0.755471
0	H	0.760058	0.0387333	0.982197
0	H	0.00104911	0.731203	0.65511
0	H	0.295579	0.253729	0.321172
0	H	0.270713	0.978139	0.48097
0	H	0.0405951	0.28704	0.157236
0	H	0.742191	0.758792	0.818683
0	H	0.731728	0.00241645	0.870333
0	H	0.0379179	0.73346	0.544739
0	H	0.291413	0.286204	0.210641
0	H	0.30176	0.0132087	0.369111
0	H	0.00203804	0.28423	0.0476886
0	H	0.747871	0.728131	0.707606
0	H	0.67486	0.032616	0.932016
0	H	0.99597	0.645722	0.609538
0	H	0.380686	0.338058	0.273853
0	H	0.35657	0.982831	0.434432
0	H	0.0459272	0.372592	0.111386
0	H	0.658439	0.674031	0.770249
0	C	0.788949	0.131297	0.881418
0	C	0.907293	0.669695	0.552768
0	C	0.35737	0.225067	0.218175
0	C	0.242959	0.884447	0.382336
0	C	0.132808	0.346897	0.052901
0	C	0.679391	0.786649	0.716112
0	H	0.844536	0.137469	0.852233
0	H	0.910263	0.721074	0.517165
0	H	0.304965	0.172396	0.185899
0	H	0.188379	0.878739	0.350696
0	H	0.129265	0.294538	0.0191848
0	H	0.731151	0.839794	0.683635
0	C	0.812671	0.191523	0.958646
0	C	0.84483	0.642315	0.628702
0	C	0.389947	0.195801	0.293206
0	C	0.216836	0.824434	0.460129
0	C	0.196698	0.376664	0.127444
0	C	0.646443	0.814864	0.791901
0	H	0.761602	0.194509	0.983381
0	H	0.832112	0.586191	0.658937
0	H	0.445361	0.244522	0.322687
0	H	0.267128	0.821246	0.487357
0	H	0.209988	0.433673	0.1555
0	H	0.591412	0.765558	0.821336
0	H	0.858697	0.251895	0.935903
0	H	0.787402	0.632543	0.60266
0	H	0.40403	0.152162	0.266361
0	H	0.171457	0.764017	0.43673
0	H	0.253694	0.385773	0.100747
0	H	0.631721	0.858276	0.765963
0	H	0.837579	0.176667	0.0169538
0	H	0.864708	0.68632	0.683721
0	H	0.346545	0.166844	0.348707
0	H	0.190355	0.839342	0.516673
0	H	0.17795	0.334334	0.184138
0	H	0.689911	0.843649	0.847408
0	C	0.780167	0.390466	0.797834
0	C	0.631011	0.393218	0.490355
0	C	0.630457	0.234413	0.149759
0	C	0.249662	0.619539	0.309725
0	C	0.406593	0.621768	0.983438
0	C	0.405513	0.774451	0.646344
0	C	0.782777	0.402781	0.891938
0	C	0.618308	0.39598	0.583602
0	C	0.640464	0.22901	0.243265
0	C	0.239228	0.603233	0.403119
0	C	0.420709	0.628167	0.0773409
0	C	0.402731	0.784325	0.740327
0	H	0.741245	0.354119	0.937463
0	H	0.667296	0.412263	0.632003
0	H	0.634549	0.268458	0.291405
0	H	0.276351	0.650055	0.452779
0	H	0.373286	0.619	0.125182
0	H	0.413972	0.748281	0.788112
0	C	0.836547	0.476865	0.928765
0	C	0.543078	0.375761	0.615849
0	C	0.659885	0.175115	0.276309
0	C	0.183523	0.527272	0.433955
0	C	0.495481	0.64844	0.110975
0	C	0.383449	0.838016	0.774301
0	H	0.837313	0.485595	0.00201284
0	H	0.533935	0.378471	0.688491
0	H	0.666907	0.171079	0.349263
0	H	0.17584	0.515275	0.506722
0	H	0.505728	0.653141	0.18416
0	H	0.381708	0.845191	0.847558
0	C	0.889452	0.539875	0.871878
0	C	0.479112	0.351293	0.555096
0	C	0.669834	0.125734	0.216176
0	C	0.137444	0.466271	0.371564
0	C	0.557532	0.663143	0.0509592
0	C	0.366358	0.882711	0.71461
0	C	0.887207	0.527186	0.777494
0	C	0.492381	0.350021	0.461146
0	C	0.658505	0.130412	0.12236
0	C	0.147075	0.483099	0.27782
0	C	0.543026	0.656069	0.956635
0	C	0.370513	0.87361	0.620193
0	H	0.928685	0.57527	0.732673
0	H	0.443652	0.333128	0.413186
0	H	0.664317	0.0911929	0.0751111
0	H	0.110237	0.436655	0.22877
0	H	0.590312	0.666108	0.909395
0	H	0.359149	0.909201	0.573043
0	C	0.832514	0.453215	0.740787
0	C	0.567675	0.370602	0.429243
0	C	0.639091	0.184344	0.0896834
0	C	0.203227	0.55898	0.247266
0	C	0.468201	0.635821	0.923317
0	C	0.389558	0.819707	0.586467
0	H	0.830225	0.444928	0.666548
0	H	0.576705	0.368065	0.355854
0	H	0.631358	0.18756	0.0162944
0	H	0.211256	0.570426	0.173658
0	H	0.45832	0.631873	0.84945
0	H	0.390961	0.812339	0.51251
0	C	0.946456	0.618601	0.912355
0	C	0.398271	0.325845	0.590788
0	C	0.69282	0.070077	0.251666
0	C	0.0800143	0.385049	0.40546
0	C	0.637547	0.686781	0.0878405
0	C	0.343306	0.937901	0.751676
0	H	0.919147	0.63415	0.967533
0	H	0.379035	0.279416	0.643042
0	H	0.737418	0.0965506	0.306622
0	H	0.106432	0.366556	0.458686
0	H	0.657333	0.732965	0.140471
0	H	0.299512	0.910849	0.807346
0	H	0.971239	0.667345	0.863126
0	H	0.351669	0.302891	0.538482
0	H	0.717276	0.0490401	0.19949
0	H	0.0569241	0.339543	0.352341
0	H	0.684568	0.70902	0.0360502
0	H	0.31765	0.958689	0.700713
0	H	0.997849	0.618557	0.944524
0	H	0.397635	0.37562	0.625269
0	H	0.640729	0.0165439	0.282549
0	H	0.0275735	0.382482	0.43851
0	H	0.636302	0.635956	0.122195
0	H	0.395534	0.991453	0.782222
0	C	0.896901	0.184507	0.404072
0	C	0.841338	0.710375	0.0908791
0	C	0.310407	0.118399	0.748469
0	C	0.13288	0.81849	0.915497
0	C	0.192768	0.300051	0.586413
0	C	0.725809	0.889862	0.243875
0	C	0.899761	0.232437	0.332253
0	C	0.794302	0.666034	0.0168984
0	C	0.352911	0.113258	0.675101
0	C	0.131491	0.773028	0.84177
0	C	0.241025	0.344721	0.513266
0	C	0.683121	0.894412	0.170291
0	H	0.902484	0.288423	0.346254
0	H	0.737064	0.610345	0.028291
0	H	0.405711	0.108704	0.687261
0	H	0.127348	0.716062	0.853392
0	H	0.29846	0.399969	0.525655
0	H	0.629321	0.897312	0.182162
0	C	0.899082	0.209525	0.242628
0	C	0.819887	0.692138	0.928458
0	C	0.328735	0.113963	0.586224
0	C	0.13571	0.799828	0.753193
0	C	0.216491	0.319558	0.42436
0	C	0.708324	0.895183	0.0815271
0	H	0.900693	0.247032	0.187186
0	H	0.783275	0.656095	0.870875
0	H	0.363076	0.110992	0.529549
0	H	0.135973	0.764488	0.696269
0	H	0.254078	0.355934	0.367592
0	H	0.67336	0.89705	0.0246408
0	C	0.895416	0.137977	0.223547
0	C	0.893082	0.763117	0.912714
0	C	0.26137	0.11979	0.569591
0	C	0.141038	0.872559	0.737187
0	C	0.143135	0.249127	0.407267
0	C	0.777155	0.891851	0.0651923
0	C	0.893208	0.09042	0.295807
0	C	0.939961	0.807558	0.987239
0	C	0.218547	0.124469	0.643515
0	C	0.141835	0.917718	0.811417
0	C	0.0952876	0.203991	0.480921
0	C	0.820381	0.888221	0.139352
0	H	0.890243	0.0347658	0.282313
0	H	0.997459	0.862123	0.976637
0	H	0.166543	0.129654	0.631868
0	H	0.147064	0.974777	0.800534
0	H	0.0378022	0.149585	0.469273
0	H	0.873789	0.885464	0.127897
0	C	0.892925	0.113155	0.385492
0	C	0.914476	0.780796	0.0756979
0	C	0.243313	0.124218	0.732274
0	C	0.138443	0.891005	0.899971
0	C	0.119704	0.229869	0.569822
0	C	0.794305	0.886424	0.228004
0	H	0.888708	0.0739114	0.440825
0	H	0.952766	0.81522	0.133
0	H	0.209804	0.129124	0.788962
0	H	0.141101	0.928012	0.957041
0	H	0.0805618	0.194871	0.626293
0	H	0.827916	0.881854	0.284826
0	C	0.893984	0.113065	0.127723
0	C	0.92045	0.790902	0.8181
0	C	0.235113	0.120173	0.474722
0	C	0.145292	0.901314	0.64262
0	C	0.11647	0.222806	0.312138
0	C	0.80412	0.892373	0.970419
0	H	0.86421	0.134234	0.0814011
0	H	0.895886	0.741503	0.768224
0	H	0.285772	0.146573	0.425852
0	H	0.172113	0.87833	0.594498
0	H	0.140857	0.273081	0.263445
0	H	0.75371	0.866107	0.921179
0	H	0.862401	0.0482042	0.120069
0	H	0.986066	0.822834	0.811409
0	H	0.204857	0.153673	0.467893
0	H	0.180946	0.966468	0.637628
0	H	0.050883	0.190354	0.305088
0	H	0.83451	0.858982	0.963619
0	H	0.955055	0.137626	0.101309
0	H	0.901447	0.831555	0.795238
0	H	0.192951	0.0593649	0.450929
0	H	0.0851716	0.881793	0.616295
0	H	0.13633	0.183132	0.288154
0	H	0.846322	0.953259	0.94697
0	C	0.57072	0.0477425	0.659445
0	C	0.971593	0.518253	0.333813
0	C	0.502643	0.444897	0.997207
0	C	0.460913	0.962737	0.158845
0	C	0.0639929	0.493335	0.834087
0	C	0.532471	0.56448	0.498217
0	C	0.562456	0.111499	0.684223
0	C	0.901848	0.44638	0.355528
0	C	0.575167	0.450694	0.0183838
0	C	0.468758	0.898938	0.184606
0	C	0.133826	0.565143	0.855878
0	C	0.460081	0.558983	0.519416
0	H	0.573282	0.133189	0.754787
0	H	0.877206	0.435816	0.424652
0	H	0.585172	0.434969	0.0865911
0	H	0.456888	0.877273	0.255014
0	H	0.158795	0.575388	0.924873
0	H	0.450012	0.574263	0.587884
0	C	0.542057	0.149209	0.619134
0	C	0.862375	0.388094	0.289136
0	C	0.634902	0.475676	0.952628
0	C	0.490558	0.861533	0.120639
0	C	0.172845	0.62377	0.789788
0	C	0.400656	0.53503	0.453474
0	H	0.542225	0.202972	0.637627
0	H	0.804841	0.334765	0.30573
0	H	0.688764	0.474225	0.968073
0	H	0.490365	0.807961	0.140167
0	H	0.230707	0.676972	0.805961
0	H	0.347081	0.537018	0.469017
0	C	0.527533	0.122124	0.528898
0	C	0.893818	0.400269	0.200819
0	C	0.623866	0.49839	0.866037
0	C	0.507253	0.889237	0.0306793
0	C	0.140642	0.612201	0.701915
0	C	0.411881	0.513121	0.366504
0	C	0.529412	0.0539031	0.506227
0	C	0.967858	0.469678	0.181659
0	C	0.552875	0.497181	0.846982
0	C	0.504169	0.956496	0.00665017
0	C	0.0668381	0.542642	0.682635
0	C	0.482198	0.512913	0.347796
0	H	0.514866	0.0305258	0.436477
0	H	0.994519	0.477877	0.113651
0	H	0.544809	0.516767	0.779902
0	H	0.519132	0.979782	0.936845
0	H	0.0398708	0.534689	0.614841
0	H	0.489993	0.493322	0.280621
0	C	0.550645	0.0170375	0.570891
0	C	0.00631552	0.527966	0.247506
0	C	0.492815	0.470567	0.91195
0	C	0.481377	0.992929	0.0701393
0	C	0.0289394	0.483873	0.748088
0	C	0.541942	0.538452	0.413004
0	H	0.552554	0.964359	0.552421
0	H	0.0635878	0.582103	0.231761
0	H	0.43739	0.469158	0.896184
0	H	0.478634	0.0449477	0.0504726
0	H	0.971781	0.429636	0.732281
0	H	0.596858	0.538871	0.39743
0	C	0.512455	0.165988	0.457377
0	C	0.848847	0.342152	0.12709
0	C	0.686629	0.52375	0.794837
0	C	0.526739	0.847259	0.961005
0	C	0.184534	0.671616	0.628947
0	C	0.350481	0.490688	0.294252
0	H	0.569696	0.217722	0.433788
0	H	0.805593	0.354905	0.0952661
0	H	0.703308	0.479206	0.783474
0	H	0.473411	0.789026	0.944362
0	H	0.23271	0.664548	0.600732
0	H	0.340351	0.539355	0.279258
0	H	0.47595	0.189613	0.481478
0	H	0.813765	0.280518	0.150981
0	H	0.742111	0.579334	0.814162
0	H	0.573076	0.835751	0.984366
0	H	0.213574	0.733154	0.653156
0	H	0.292078	0.439021	0.31423
0	H	0.483193	0.128765	0.39689
0	H	0.888659	0.345611	0.071788
0	H	0.667425	0.535214	0.728914
0	H	0.547722	0.880974	0.896721
0	H	0.145147	0.664516	0.571358
0	H	0.368026	0.475037	0.229835
