#******************************************
#
# CIF file created by Zeo++
# Zeo++ is an open source package to
# analyze microporous materials
#
#*******************************************

_cell_length_a		16.4889(0)
_cell_length_b		16.6597(0)
_cell_length_c		17.6772(0)
_cell_angle_alpha		90(0)
_cell_angle_beta		90(0)
_cell_angle_gamma		121.131(0)

_symmetry_space_group_name_H-M		'P1'
_symmetry_Int_Tables_number		1
_symmetry_cell_setting		Monoclinic

loop_
_symmetry_equiv_pos_as_xyz
'+x,+y,+z'

loop_
_atom_site_label
_atom_site_type_symbol
_atom_site_fract_x
_atom_site_fract_y
_atom_site_fract_z
0	O	0.355646	0.150229	0.844229
0	O	0.90222	0.212722	0.521432
0	O	0.829439	0.688287	0.180808
0	O	0.656823	0.90768	0.333624
0	O	0.140863	0.755369	5.76421e-05
0	O	0.286778	0.387678	0.664898
0	O	0.278667	0.967306	0.904899
0	O	0.0880773	0.328464	0.574816
0	O	0.728316	0.770095	0.241229
0	O	0.823606	0.0876857	0.40151
0	O	0.957415	0.739333	0.0634156
0	O	0.296886	0.221884	0.730167
0	O	0.371644	0.786993	0.757708
0	O	0.258758	0.600398	0.415808
0	O	0.450019	0.681091	0.0961601
0	O	0.698071	0.241074	0.270384
0	O	0.804318	0.456161	0.931124
0	O	0.583974	0.349057	0.603591
0	O	0.0150805	0.726387	0.225677
0	O	0.315458	0.29139	0.894969
0	O	0.755317	0.0304238	0.562099
0	O	0.0447788	0.290568	0.729515
0	O	0.765508	0.767263	0.3964
0	O	0.282039	0.00415597	0.0618709
0	O	0.889755	0.731884	0.325178
0	O	0.305308	0.157858	0.990539
0	O	0.887954	0.154195	0.663608
0	O	0.167314	0.299538	0.827005
0	O	0.762024	0.87897	0.499426
0	O	0.169619	0.883336	0.160953
0	C	0.297244	0.0310683	0.743461
0	C	0.0168533	0.2732	0.415927
0	C	0.772267	0.750943	0.0810164
0	C	0.774233	0.997612	0.24023
0	C	0.0543233	0.781409	0.904412
0	C	0.260907	0.275794	0.568898
0	H	0.225093	0.99514	0.768292
0	H	0.0543559	0.240237	0.440809
0	H	0.810907	0.821819	0.106736
0	H	0.829117	0.031319	0.285387
0	H	0.0204744	0.802336	0.94864
0	H	0.235872	0.220392	0.613365
0	H	0.298861	0.0826075	0.702779
0	H	0.963029	0.219586	0.377276
0	H	0.822723	0.749512	0.0403619
0	H	0.808548	0.977393	0.196015
0	H	0.0774508	0.836803	0.860242
0	H	0.205925	0.243849	0.523801
0	C	0.369757	0.0826179	0.806189
0	C	0.967422	0.294391	0.479208
0	C	0.747824	0.677796	0.142959
0	C	0.689745	0.910202	0.271389
0	C	0.14048	0.785131	0.937222
0	C	0.261663	0.360171	0.600443
0	H	0.443049	0.124729	0.782338
0	H	0.923232	0.321383	0.455175
0	H	0.71252	0.605553	0.118215
0	H	0.659212	0.847166	0.234841
0	H	0.204616	0.817672	0.901216
0	H	0.23737	0.39603	0.562068
0	C	0.368951	0.0155331	0.867486
0	C	0.0376502	0.366143	0.537575
0	C	0.682249	0.680197	0.204671
0	C	0.738744	0.0591369	0.3997
0	C	0.985089	0.683871	0.0633174
0	C	0.354768	0.306184	0.729828
0	H	0.424969	0.0564613	0.91023
0	H	0.998341	0.381472	0.580722
0	H	0.665301	0.625111	0.247809
0	H	0.689947	0.00984566	0.442875
0	H	0.0334288	0.685968	0.107605
0	H	0.3534	0.353191	0.773135
0	C	0.382765	0.940493	0.829481
0	C	0.11138	0.455523	0.496259
0	C	0.592548	0.667594	0.16678
0	C	0.696589	0.0926846	0.340791
0	C	0.951776	0.607085	0.00484039
0	C	0.433717	0.349782	0.67215
0	H	0.375253	0.888299	0.872198
0	H	0.165972	0.504173	0.536967
0	H	0.547676	0.675072	0.209599
0	H	0.67948	0.142663	0.368122
0	H	0.899662	0.538936	0.0319275
0	H	0.501406	0.366923	0.700474
0	H	0.455843	0.972021	0.807244
0	H	0.0781137	0.49385	0.473848
0	H	0.548694	0.595534	0.144117
0	H	0.626512	0.0332531	0.322362
0	H	0.0115498	0.597848	0.988185
0	H	0.445777	0.419021	0.653963
0	C	0.310322	0.89019	0.765913
0	C	0.159406	0.43324	0.432117
0	C	0.617325	0.739787	0.103486
0	C	0.761858	0.139556	0.272626
0	C	0.907275	0.624169	0.935264
0	C	0.415376	0.285847	0.603918
0	H	0.237897	0.857359	0.792346
0	H	0.194559	0.397644	0.45891
0	H	0.659599	0.811154	0.130463
0	H	0.837075	0.173683	0.294031
0	H	0.873311	0.66438	0.95522
0	H	0.371092	0.211161	0.624799
0	C	0.31876	0.81076	0.732502
0	C	0.236722	0.522386	0.394732
0	C	0.528674	0.732562	0.0705054
0	C	0.75004	0.218314	0.241542
0	C	0.827871	0.531675	0.903113
0	C	0.507599	0.297065	0.574513
0	C	0.252444	0.75883	0.667764
0	C	0.288133	0.507364	0.330873
0	C	0.54501	0.798185	0.00572845
0	C	0.811675	0.270763	0.174694
0	C	0.776317	0.54009	0.83596
0	C	0.497434	0.234747	0.50878
0	H	0.18029	0.711076	0.690445
0	H	0.337095	0.486828	0.354609
0	H	0.572043	0.869696	0.0284157
0	H	0.8852	0.318592	0.195002
0	H	0.728398	0.563989	0.856044
0	H	0.468043	0.162045	0.529779
0	H	0.272995	0.711592	0.640717
0	H	0.334919	0.575044	0.301424
0	H	0.476016	0.778268	0.978913
0	H	0.789241	0.318132	0.150912
0	H	0.728272	0.469464	0.811333
0	H	0.568662	0.25551	0.486251
0	C	0.251279	0.825005	0.607892
0	C	0.219829	0.434458	0.273518
0	C	0.612592	0.798688	0.945679
0	C	0.809622	0.20582	0.112176
0	C	0.843417	0.605737	0.774345
0	C	0.435804	0.237565	0.444981
0	H	0.320788	0.859097	0.577392
0	H	0.184496	0.466177	0.241696
0	H	0.574925	0.729636	0.915577
0	H	0.739279	0.173146	0.0832128
0	H	0.87529	0.569175	0.744824
0	H	0.476695	0.307398	0.41647
0	C	0.237107	0.902195	0.643704
0	C	0.142781	0.342477	0.312346
0	C	0.705288	0.812681	0.981479
0	C	0.823897	0.127264	0.144714
0	C	0.924099	0.699767	0.807811
0	C	0.341191	0.224082	0.475905
0	H	0.167365	0.866766	0.673683
0	H	0.179292	0.311076	0.342683
0	H	0.74136	0.881382	0.0118998
0	H	0.895967	0.161606	0.171156
0	H	0.890802	0.737028	0.834054
0	H	0.300905	0.153145	0.502939
0	C	0.315993	0.959476	0.703509
0	C	0.0869439	0.363797	0.372467
0	C	0.68114	0.733915	0.0408474
0	C	0.750198	0.069766	0.208184
0	C	0.980005	0.683958	0.871764
0	C	0.358749	0.298005	0.538325
0	C	0.232781	0.965626	0.581928
0	C	0.0770144	0.270696	0.252295
0	C	0.774233	0.81778	0.919701
0	C	0.821853	0.063544	0.0802086
0	C	0.990153	0.762976	0.743827
0	C	0.279726	0.225472	0.410516
0	H	0.214227	0.0142565	0.60856
0	H	0.0278326	0.203322	0.280616
0	H	0.842795	0.837049	0.946348
0	H	0.836654	0.0106336	0.104085
0	H	0.0450662	0.831391	0.768195
0	H	0.210581	0.210737	0.433546
0	H	0.304087	0.0104385	0.556871
0	H	0.031975	0.294888	0.226702
0	H	0.746649	0.747217	0.894878
0	H	0.749637	0.0233182	0.0558472
0	H	0.0288056	0.731039	0.719348
0	H	0.313753	0.296749	0.385764
0	C	0.161566	0.911643	0.518133
0	C	0.129521	0.252545	0.188739
0	C	0.792601	0.887819	0.855591
0	C	0.893243	0.117662	0.016755
0	C	0.937571	0.780817	0.68052
0	C	0.261744	0.154328	0.347834
0	H	0.0878148	0.878935	0.539609
0	H	0.161705	0.213232	0.211188
0	H	0.835379	0.960808	0.876816
0	H	0.966804	0.14749	0.0375003
0	H	0.909934	0.824595	0.701713
0	H	0.216309	0.0818028	0.369051
0	H	0.167552	0.961103	0.473422
0	H	0.0780512	0.206135	0.145338
0	H	0.836504	0.881975	0.810916
0	H	0.885075	0.0687526	0.970645
0	H	0.987977	0.822623	0.634696
0	H	0.2209	0.161395	0.301053
0	C	0.178111	0.836114	0.483982
0	C	0.206214	0.345042	0.152061
0	C	0.698834	0.870502	0.821325
0	C	0.879249	0.196031	0.985456
0	C	0.856222	0.687627	0.648537
0	C	0.356159	0.169023	0.317606
0	C	0.170565	0.771197	0.55115
0	C	0.272898	0.407239	0.21785
0	C	0.640891	0.877909	0.888407
0	C	0.88889	0.260118	0.053998
0	C	0.790438	0.631077	0.716689
0	C	0.409977	0.1594	0.386849
0	H	0.102334	0.748472	0.581649
0	H	0.295989	0.364262	0.24981
0	H	0.688036	0.94582	0.918535
0	H	0.957821	0.281922	0.0830661
0	H	0.770346	0.677857	0.746411
0	H	0.360612	0.0910409	0.415628
0	C	0.16013	0.683986	0.512572
0	C	0.360596	0.485106	0.177409
0	C	0.562775	0.886873	0.849667
0	C	0.899947	0.348309	0.0164449
0	C	0.700138	0.55312	0.67868
0	C	0.488621	0.149127	0.35034
0	H	0.122956	0.621651	0.548945
0	H	0.423887	0.51472	0.213622
0	H	0.537049	0.922772	0.885859
0	H	0.937249	0.410294	0.0532004
0	H	0.637598	0.527519	0.715327
0	H	0.511843	0.111704	0.387359
0	H	0.229533	0.6922	0.498584
0	H	0.352198	0.544651	0.161085
0	H	0.500027	0.817682	0.835629
0	H	0.830773	0.34058	0.00283262
0	H	0.705112	0.491061	0.664714
0	H	0.552782	0.217691	0.337816
0	C	0.104099	0.673548	0.439516
0	C	0.370414	0.436656	0.10652
0	C	0.609945	0.942711	0.776748
0	C	0.956314	0.35956	0.943196
0	C	0.691088	0.59936	0.605767
0	C	0.44352	0.0943186	0.276355
0	H	0.0329479	0.61014	0.441277
0	H	0.43365	0.430527	0.110205
0	H	0.61949	0.0131295	0.778947
0	H	0.0281142	0.421926	0.946223
0	H	0.629001	0.607443	0.608524
0	H	0.432915	0.023478	0.279038
0	H	0.14122	0.6656	0.390638
0	H	0.379537	0.479451	0.0559184
0	H	0.56344	0.906345	0.727882
0	H	0.920993	0.370207	0.894535
0	H	0.680187	0.554009	0.556628
0	H	0.491713	0.130224	0.228374
0	C	0.0970744	0.762902	0.431643
0	C	0.279208	0.337634	0.100442
0	C	0.707514	0.949795	0.768357
0	C	0.961051	0.269183	0.933519
0	C	0.783873	0.696647	0.597491
0	C	0.347094	0.0889026	0.265542
0	H	0.0280763	0.74771	0.45653
0	H	0.29368	0.285239	0.126788
0	H	0.763871	0.018429	0.792403
0	H	0.0295787	0.282321	0.957836
0	H	0.772362	0.751335	0.623315
0	H	0.28938	0.0206784	0.289181
0	C	0.274277	0.88217	0.443489
0	C	0.160113	0.391734	0.109667
0	C	0.646786	0.774936	0.781381
0	C	0.782985	0.15347	0.945418
0	C	0.896396	0.634551	0.607276
0	C	0.412629	0.264709	0.278179
0	H	0.286939	0.829188	0.418676
0	H	0.213722	0.457589	0.0829845
0	H	0.579446	0.76099	0.757061
0	H	0.771956	0.208326	0.92249
0	H	0.839596	0.56779	0.584196
0	H	0.479728	0.276157	0.255464
0	H	0.333118	0.924287	0.482327
0	H	0.118843	0.408991	0.147758
0	H	0.630226	0.717371	0.820473
0	H	0.724043	0.111106	0.984042
0	H	0.938477	0.618152	0.645125
0	H	0.430116	0.322589	0.317161
0	H	0.278106	0.928384	0.397778
0	H	0.112252	0.345969	0.0651586
0	H	0.689619	0.771754	0.735473
0	H	0.777461	0.108025	0.898383
0	H	0.942351	0.675757	0.560144
0	H	0.372559	0.270334	0.231173
0	C	0.413986	0.00990153	0.665644
0	C	0.0339037	0.406337	0.334287
0	C	0.630072	0.637226	0.00240621
0	C	0.648627	0.0199564	0.177068
0	C	0.0284088	0.632657	0.841494
0	C	0.415006	0.39823	0.506651
0	H	0.428756	0.960409	0.63691
0	H	0.0823331	0.470787	0.303247
0	H	0.563873	0.622432	0.975282
0	H	0.633378	0.0691975	0.148405
0	H	0.977877	0.567363	0.812376
0	H	0.480481	0.412113	0.478614
0	H	0.471389	0.0490714	0.706414
0	H	0.996157	0.424555	0.375385
0	H	0.611754	0.580158	0.0425508
0	H	0.595887	0.987011	0.222496
0	H	0.0594648	0.612795	0.887519
0	H	0.436536	0.450982	0.551592
0	H	0.419075	0.0603136	0.623225
0	H	0.981243	0.357142	0.293817
0	H	0.674688	0.633006	0.958501
0	H	0.635924	0.965463	0.135975
0	H	0.0847475	0.675544	0.801026
0	H	0.374098	0.41115	0.464801
0	C	0.0983011	0.790896	0.348242
0	C	0.250599	0.307697	0.0173752
0	C	0.732939	0.947687	0.684645
0	C	0.958096	0.240841	0.850122
0	C	0.812697	0.724683	0.51441
0	C	0.323017	0.0924479	0.181796
0	H	0.167555	0.808446	0.322118
0	H	0.233729	0.357989	0.98986
0	H	0.678075	0.879	0.659278
0	H	0.88896	0.224932	0.824715
0	H	0.824776	0.670911	0.487148
0	H	0.378789	0.161325	0.157239
0	C	0.087814	0.876409	0.340104
0	C	0.163335	0.209244	0.0107149
0	C	0.829458	0.956775	0.67518
0	C	0.965643	0.15349	0.841966
0	C	0.903882	0.82036	0.50686
0	C	0.226935	0.0846305	0.172307
0	H	0.0950455	0.898171	0.280494
0	H	0.142501	0.191623	0.951108
0	H	0.841287	0.945784	0.615708
0	H	0.958331	0.131751	0.782265
0	H	0.925661	0.835894	0.447113
0	H	0.215027	0.0957516	0.11281
0	H	0.140852	0.936336	0.373252
0	H	0.102375	0.202201	0.0418144
0	H	0.836011	0.905992	0.709985
0	H	0.910952	0.0936255	0.874386
0	H	0.963427	0.824279	0.538334
0	H	0.220834	0.136056	0.206852
0	H	0.0170354	0.860281	0.358367
0	H	0.177934	0.155778	0.0319876
0	H	0.887446	0.0275692	0.690647
0	H	0.0353945	0.167477	0.860937
0	H	0.893668	0.876878	0.527459
0	H	0.168635	0.0142225	0.188167
0	C	0.019706	0.705443	0.303851
0	C	0.336325	0.316044	0.973417
0	C	0.727973	0.0254722	0.640027
0	C	0.0372316	0.323302	0.803267
0	C	0.731149	0.72387	0.469454
0	C	0.325644	0.0147038	0.135031
0	H	0.0380851	0.649577	0.302212
0	H	0.394518	0.391362	0.972686
0	H	0.652408	0.00679103	0.637245
0	H	0.017922	0.377421	0.793837
0	H	0.673892	0.650078	0.45843
0	H	0.400585	0.0358301	0.123909
0	C	0.918306	0.664459	0.336582
0	C	0.37447	0.254861	0.00531971
0	C	0.789984	0.1256	0.673692
0	C	0.138453	0.367186	0.836617
0	C	0.690695	0.780735	0.505811
0	C	0.268713	0.914957	0.169921
0	H	0.920356	0.660549	0.399523
0	H	0.375983	0.258142	0.0683578
0	H	0.782784	0.122806	0.736597
0	H	0.137079	0.373502	0.899343
0	H	0.683217	0.769691	0.568226
0	H	0.277254	0.917606	0.232607
0	C	0.843396	0.569072	0.301836
0	C	0.471179	0.27785	0.972194
0	C	0.77085	0.199808	0.639404
0	C	0.213628	0.461047	0.79999
0	C	0.597721	0.76358	0.469299
0	C	0.288874	0.842288	0.134057
0	H	0.827894	0.585453	0.243508
0	H	0.455438	0.247479	0.913117
0	H	0.803308	0.215724	0.581016
0	H	0.231809	0.443064	0.743492
0	H	0.617247	0.797753	0.411848
0	H	0.254142	0.824621	0.0766938
0	C	0.749754	0.526418	0.347807
0	C	0.510505	0.225268	0.0174773
0	C	0.824194	0.292476	0.685438
0	C	0.305751	0.506318	0.848339
0	C	0.557995	0.815225	0.515572
0	C	0.239235	0.750111	0.181224
0	H	0.734341	0.583936	0.356373
0	H	0.450008	0.151423	0.025501
0	H	0.898281	0.307826	0.694311
0	H	0.322234	0.4499	0.859536
0	H	0.619579	0.887602	0.527758
0	H	0.165169	0.733661	0.192824
0	C	0.756881	0.490215	0.425838
0	C	0.548364	0.267894	0.0957987
0	C	0.77987	0.285258	0.763291
0	C	0.29442	0.542931	0.924822
0	C	0.514203	0.767443	0.591273
0	C	0.287849	0.759196	0.257376
0	H	0.766347	0.429958	0.42126
0	H	0.612062	0.337838	0.0917839
0	H	0.709144	0.275717	0.758711
0	H	0.283834	0.602253	0.918264
0	H	0.449679	0.698852	0.583563
0	H	0.358142	0.76835	0.250317
0	H	0.692388	0.466895	0.45914
0	H	0.56797	0.224756	0.128834
0	H	0.822773	0.349012	0.796789
0	H	0.357503	0.567598	0.960305
0	H	0.494166	0.809523	0.625388
0	H	0.246836	0.696152	0.292206
0	H	0.816555	0.544437	0.458626
0	H	0.49554	0.274246	0.128698
0	H	0.773176	0.226203	0.796054
0	H	0.233859	0.488443	0.956653
0	H	0.563625	0.756862	0.625115
0	H	0.296536	0.818905	0.290236
0	C	0.667635	0.44754	0.302676
0	C	0.588001	0.221901	0.971972
0	C	0.829887	0.37385	0.640074
0	C	0.388655	0.584794	0.803697
0	C	0.486003	0.825446	0.468031
0	C	0.23252	0.669075	0.134811
0	H	0.679723	0.38942	0.291778
0	H	0.64923	0.292819	0.961886
0	H	0.758988	0.362513	0.629119
0	H	0.376149	0.641939	0.789636
0	H	0.422986	0.756984	0.454842
0	H	0.30303	0.680516	0.121642
0	H	0.659171	0.472223	0.247572
0	H	0.562226	0.189681	0.916391
0	H	0.86344	0.381742	0.584935
0	H	0.399349	0.55846	0.750116
0	H	0.517043	0.859683	0.413754
0	H	0.196687	0.661504	0.0806794
0	H	0.600581	0.41819	0.333296
0	H	0.614387	0.182399	0.00177874
0	H	0.870094	0.440375	0.670435
0	H	0.454768	0.615851	0.835826
0	H	0.461634	0.866868	0.497446
0	H	0.193537	0.602476	0.16516
0	C	0.877808	0.499424	0.292833
0	C	0.544223	0.383491	0.96518
0	C	0.664775	0.165112	0.630408
0	C	0.178417	0.529365	0.786386
0	C	0.523122	0.658863	0.458534
0	C	0.395252	0.879506	0.12319
0	H	0.929472	0.510688	0.337636
0	H	0.533856	0.423079	0.0104766
0	H	0.622759	0.112639	0.67441
0	H	0.126508	0.520207	0.83023
0	H	0.529847	0.616369	0.503343
0	H	0.437048	0.929968	0.168432
0	H	0.817144	0.426661	0.301314
0	H	0.616631	0.395957	0.974106
0	H	0.653157	0.224368	0.640176
0	H	0.238894	0.602633	0.793035
0	H	0.451222	0.648297	0.465825
0	H	0.407851	0.820389	0.129865
0	C	0.920456	0.505502	0.214683
0	C	0.540748	0.421865	0.88741
0	C	0.627825	0.124816	0.551592
0	C	0.136226	0.519198	0.707436
0	C	0.528456	0.622695	0.380306
0	C	0.431484	0.923649	0.0453017
0	H	0.957493	0.466847	0.212532
0	H	0.583349	0.498441	0.885726
0	H	0.550563	0.0884984	0.548693
0	H	0.100315	0.558727	0.702088
0	H	0.481064	0.546672	0.37587
0	H	0.508785	0.96012	0.0420071
0	H	0.971732	0.578793	0.198951
0	H	0.46762	0.400592	0.871699
0	H	0.648873	0.074266	0.535327
0	H	0.0846079	0.445481	0.693864
0	H	0.600658	0.639211	0.36716
0	H	0.4102	0.974565	0.0316072
0	H	0.865423	0.477307	0.170959
0	H	0.566621	0.394325	0.843342
0	H	0.656984	0.180309	0.508714
0	H	0.191547	0.544308	0.66393
0	H	0.508754	0.655728	0.336051
0	H	0.402081	0.870136	0.000741171
0	H	0.316188	0.169184	0.815011
0	H	0.874849	0.153092	0.491445
0	H	0.889373	0.724196	0.150735
0	H	0.734547	0.76228	0.296913
0	H	0.287021	0.983027	0.96036
0	H	0.0733373	0.321429	0.63051
0	H	0.0726344	0.787073	0.209567
0	H	0.257429	0.291542	0.877952
0	H	0.760237	0.974733	0.54682
0	H	0.980791	0.23579	0.712193
0	H	0.816917	0.755749	0.377347
0	H	0.288563	0.0655191	0.0443365
0	H	0.875987	0.734163	0.269465
0	H	0.3061	0.14452	0.934456
0	H	0.905468	0.167202	0.608037
0	H	0.159387	0.28094	0.772618
0	H	0.782749	0.892288	0.445598
0	H	0.158063	0.890465	0.106668
