#******************************************
#
# CIF file created by Zeo++
# Zeo++ is an open source package to
# analyze microporous materials
#
#*******************************************

_cell_length_a		22.3648(0)
_cell_length_b		22.3146(0)
_cell_length_c		11.0199(0)
_cell_angle_alpha		90(0)
_cell_angle_beta		90(0)
_cell_angle_gamma		119.586(0)

_symmetry_space_group_name_H-M		'P1'
_symmetry_Int_Tables_number		1
_symmetry_cell_setting		Monoclinic

loop_
_symmetry_equiv_pos_as_xyz
'+x,+y,+z'

loop_
_atom_site_label
_atom_site_type_symbol
_atom_site_fract_x
_atom_site_fract_y
_atom_site_fract_z
0	O	0.60184	0.594976	0.732078
0	O	0.386264	0.00363347	0.728626
0	O	0.975965	0.377026	0.731301
0	O	0.375463	0.388859	0.396049
0	O	0.591287	0.980316	0.394998
0	O	0.00140448	0.606675	0.394549
0	O	0.269131	0.92712	0.0509281
0	O	0.0532775	0.334908	0.0530393
0	O	0.643456	0.709598	0.0512948
0	O	0.0403956	0.720211	0.733293
0	O	0.259086	0.313491	0.732208
0	O	0.667471	0.942564	0.735519
0	O	0.937044	0.263557	0.392762
0	O	0.718233	0.670118	0.393861
0	O	0.309815	0.0410871	0.390185
0	O	0.708	0.056396	0.0739092
0	O	0.924159	0.648627	0.073589
0	O	0.333659	0.273464	0.0749706
0	O	0.464501	0.485153	0.757677
0	O	0.49672	0.975687	0.75522
0	O	0.00476055	0.515588	0.757978
0	O	0.512827	0.498433	0.369471
0	O	0.480641	0.00803379	0.36886
0	O	0.972648	0.468141	0.368277
0	O	0.131919	0.819118	0.0791399
0	O	0.162337	0.305671	0.0806261
0	O	0.673481	0.84776	0.0805107
0	O	0.177921	0.827525	0.702524
0	O	0.15087	0.344063	0.702813
0	O	0.637464	0.804319	0.705624
0	O	0.799525	0.156138	0.423131
0	O	0.826436	0.639525	0.423544
0	O	0.33984	0.179356	0.419929
0	O	0.845221	0.164442	0.0461282
0	O	0.815175	0.677944	0.0463942
0	O	0.30368	0.135358	0.0446633
0	O	0.533151	0.394401	0.0882285
0	O	0.585355	0.134062	0.0861749
0	O	0.846088	0.448833	0.0876599
0	O	0.444019	0.588924	0.0388303
0	O	0.391819	0.849387	0.0383329
0	O	0.131137	0.534621	0.0382962
0	O	0.20058	0.727034	0.408435
0	O	0.253053	0.465635	0.409549
0	O	0.514563	0.780784	0.410722
0	O	0.108388	0.91989	0.375731
0	O	0.0595904	0.183608	0.37529
0	O	0.796789	0.871816	0.376726
0	O	0.868952	0.0638049	0.750196
0	O	0.917674	0.800154	0.750793
0	O	0.180563	0.111993	0.748841
0	O	0.776862	0.2568	0.716887
0	O	0.724216	0.518126	0.717292
0	O	0.462772	0.203142	0.714581
0	O	0.67004	0.492846	0.0535573
0	O	0.486309	0.172838	0.0504559
0	O	0.806682	0.310935	0.0521906
0	O	0.307095	0.490335	0.0736188
0	O	0.490629	0.810266	0.0747288
0	O	0.170561	0.672587	0.0735593
0	O	0.337172	0.826071	0.374673
0	O	0.153016	0.503049	0.376861
0	O	0.476358	0.64331	0.376135
0	O	0.970834	0.823584	0.416359
0	O	0.15709	0.142708	0.413338
0	O	0.837523	0.0100388	0.415983
0	O	0.00643785	0.160117	0.709826
0	O	0.820154	0.840955	0.71273
0	O	0.139823	0.973804	0.709893
0	O	0.64022	0.157664	0.750108
0	O	0.824229	0.480582	0.749728
0	O	0.501076	0.340628	0.750627
0	C	0.708839	0.609764	0.880308
0	C	0.370927	0.0964756	0.87557
0	C	0.883442	0.270461	0.878551
0	C	0.268395	0.373731	0.247279
0	C	0.606296	0.887064	0.248787
0	C	0.0938414	0.713149	0.246937
0	C	0.376449	0.941585	0.198585
0	C	0.0386785	0.428668	0.198689
0	C	0.550724	0.602438	0.197595
0	C	0.932298	0.707273	0.590599
0	C	0.272516	0.218379	0.588683
0	C	0.761795	0.050335	0.591897
0	C	0.0450522	0.276485	0.535593
0	C	0.704864	0.765384	0.536802
0	C	0.215549	0.933379	0.533942
0	C	0.600798	0.0419721	0.925875
0	C	0.938668	0.554921	0.927563
0	C	0.426488	0.380968	0.929221
0	H	0.712177	0.635839	0.791737
0	H	0.34581	0.0749183	0.786056
0	H	0.905509	0.266748	0.789474
0	H	0.265011	0.347775	0.336001
0	H	0.631653	0.908946	0.338004
0	H	0.0718611	0.716971	0.336034
0	H	0.380129	0.966498	0.108512
0	H	0.014129	0.407665	0.108478
0	H	0.571043	0.598764	0.106549
0	H	0.929293	0.683017	0.681086
0	H	0.296738	0.239077	0.679195
0	H	0.741492	0.0539947	0.682902
0	H	0.0480693	0.300755	0.445114
0	H	0.680845	0.744789	0.446112
0	H	0.235872	0.929695	0.442985
0	H	0.59705	0.0169925	0.0159037
0	H	0.963301	0.575905	0.0177309
0	H	0.406082	0.384504	0.0202509
0	H	0.715553	0.648564	0.951477
0	H	0.331586	0.0643131	0.94537
0	H	0.915325	0.262978	0.949096
0	H	0.261699	0.334838	0.176325
0	H	0.645468	0.918958	0.178543
0	H	0.0618834	0.720537	0.176418
0	H	0.383444	0.981535	0.267453
0	H	0.998482	0.396413	0.267192
0	H	0.583598	0.594387	0.265036
0	H	0.924542	0.666799	0.522328
0	H	0.312866	0.250765	0.520543
0	H	0.729126	0.0586868	0.524447
0	H	0.0528026	0.316937	0.603904
0	H	0.664358	0.73292	0.604645
0	H	0.248244	0.925086	0.601444
0	H	0.593873	0.00208289	0.856933
0	H	0.978797	0.587184	0.858962
0	H	0.393664	0.389122	0.861811
0	C	0.638394	0.548456	0.894971
0	C	0.432046	0.0864224	0.891228
0	C	0.893244	0.341567	0.893714
0	C	0.338853	0.435016	0.23254
0	C	0.54517	0.897101	0.233144
0	C	0.0840243	0.642023	0.23201
0	C	0.305778	0.88078	0.2143
0	C	0.099286	0.417875	0.215537
0	C	0.561308	0.673737	0.214887
0	C	0.00311124	0.767533	0.57266
0	C	0.212165	0.229557	0.571352
0	C	0.75086	0.978919	0.574044
0	C	0.974245	0.216212	0.553445
0	C	0.765172	0.754171	0.55451
0	C	0.22644	0.00478796	0.551701
0	C	0.671484	0.1028	0.910414
0	C	0.878049	0.56572	0.911012
0	C	0.415918	0.309703	0.911521
0	C	0.585389	0.543708	0.819199
0	C	0.437323	0.0382229	0.815699
0	C	0.941645	0.394326	0.81833
0	C	0.391862	0.439883	0.308438
0	C	0.540042	0.945501	0.308355
0	C	0.0356768	0.589324	0.307523
0	C	0.252805	0.876182	0.138572
0	C	0.104218	0.369363	0.140277
0	C	0.609607	0.726647	0.139561
0	C	0.0565811	0.771304	0.64597
0	C	0.208002	0.279027	0.645188
0	C	0.701733	0.925686	0.647789
0	C	0.920803	0.212425	0.480032
0	C	0.769332	0.704642	0.480842
0	C	0.275544	0.0579939	0.477865
0	C	0.724387	0.107359	0.986298
0	C	0.873175	0.614207	0.986429
0	C	0.367564	0.256619	0.986488
0	C	0.51703	0.490618	0.832797
0	C	0.490775	0.0228567	0.829824
0	C	0.957403	0.463183	0.832393
0	C	0.460232	0.492923	0.294498
0	C	0.486548	0.960807	0.294365
0	C	0.0199392	0.520457	0.293647
0	C	0.184447	0.823369	0.153136
0	C	0.157472	0.353776	0.154546
0	C	0.625517	0.795462	0.154687
0	C	0.125066	0.823621	0.630027
0	C	0.155338	0.295399	0.629943
0	C	0.685736	0.856843	0.632287
0	C	0.852331	0.160081	0.495813
0	C	0.821979	0.688259	0.496242
0	C	0.291567	0.126847	0.493285
0	C	0.792758	0.160194	0.971975
0	C	0.819887	0.629764	0.972422
0	C	0.351647	0.18783	0.970776
0	C	0.499366	0.437905	0.919242
0	C	0.543204	0.0576657	0.916357
0	C	0.922645	0.481571	0.918521
0	C	0.477851	0.545513	0.207824
0	C	0.434037	0.925878	0.208027
0	C	0.0546544	0.502009	0.207558
0	C	0.166667	0.77039	0.239031
0	C	0.210435	0.388959	0.239996
0	C	0.590859	0.813862	0.240908
0	C	0.142606	0.876559	0.544164
0	C	0.102399	0.260387	0.544394
0	C	0.720652	0.838647	0.546294
0	C	0.834749	0.107124	0.581662
0	C	0.874928	0.723336	0.581765
0	C	0.256679	0.145096	0.579262
0	C	0.810606	0.213221	0.886158
0	C	0.766831	0.594569	0.887165
0	C	0.386318	0.169641	0.884222
0	C	0.55194	0.442182	0.994763
0	C	0.538136	0.105614	0.992095
0	C	0.874384	0.42927	0.993937
0	C	0.425237	0.541173	0.132339
0	C	0.439008	0.877815	0.132455
0	C	0.102871	0.554256	0.131969
0	C	0.219136	0.774723	0.314856
0	C	0.205487	0.436843	0.316017
0	C	0.543002	0.761529	0.316725
0	C	0.0896884	0.87275	0.470145
0	C	0.106707	0.211693	0.46957
0	C	0.769025	0.891249	0.471473
0	C	0.887632	0.11094	0.655767
0	C	0.870572	0.77203	0.65651
0	C	0.208307	0.0925189	0.654113
0	C	0.758204	0.208962	0.810243
0	C	0.771754	0.54676	0.810896
0	C	0.434263	0.222169	0.808794
0	C	0.620555	0.496475	0.982325
0	C	0.483529	0.120056	0.979159
0	C	0.859618	0.36014	0.981168
0	C	0.35665	0.486858	0.144908
0	C	0.493561	0.863292	0.145517
0	C	0.117618	0.623382	0.144578
0	C	0.287725	0.829104	0.302332
0	C	0.150679	0.451078	0.303757
0	C	0.528419	0.692452	0.303579
0	C	0.02083	0.819355	0.485056
0	C	0.160548	0.196149	0.48362
0	C	0.784288	0.960449	0.485989
0	C	0.956499	0.164357	0.64098
0	C	0.816728	0.787563	0.642358
0	C	0.193026	0.0233027	0.639709
0	C	0.68961	0.154541	0.822485
0	C	0.826582	0.532535	0.822915
0	C	0.448883	0.291214	0.82261
0	C	0.614081	0.573919	0.613383
0	C	0.407606	0.0354076	0.60909
0	C	0.944467	0.367633	0.611647
0	C	0.363112	0.410175	0.514399
0	C	0.570277	0.948688	0.514724
0	C	0.032851	0.616013	0.514242
0	C	0.279904	0.904979	0.932085
0	C	0.0749975	0.367423	0.934024
0	C	0.611862	0.701896	0.932078
0	C	0.0307874	0.742696	0.852679
0	C	0.237168	0.281522	0.85159
0	C	0.698829	0.950094	0.854925
0	C	0.946426	0.240998	0.273288
0	C	0.740179	0.701897	0.274346
0	C	0.278306	0.0332743	0.270852
0	C	0.697279	0.0785463	0.192776
0	C	0.902379	0.616158	0.192631
0	C	0.365562	0.281581	0.194009
0	H	0.650842	0.555021	0.621591
0	H	0.42688	0.0910341	0.615354
0	H	0.888941	0.332085	0.617557
0	H	0.326336	0.429027	0.505699
0	H	0.551217	0.893088	0.508688
0	H	0.0883787	0.651564	0.508405
0	H	0.316427	0.885784	0.939328
0	H	0.0941491	0.422986	0.941166
0	H	0.556386	0.666203	0.937618
0	H	0.995002	0.762831	0.846555
0	H	0.217928	0.225913	0.845232
0	H	0.754429	0.985171	0.849419
0	H	0.982158	0.22079	0.279205
0	H	0.759592	0.757541	0.280443
0	H	0.222718	0.998176	0.276606
0	H	0.660613	0.0975682	0.185622
0	H	0.883329	0.560612	0.185581
0	H	0.421038	0.317223	0.188028
0	H	0.636486	0.622011	0.561053
0	H	0.359645	0.01016	0.556671
0	H	0.969626	0.344612	0.558854
0	H	0.340683	0.362183	0.567051
0	H	0.618314	0.974189	0.56689
0	H	0.00765665	0.63901	0.567012
0	H	0.30209	0.952702	0.878676
0	H	0.0272509	0.342485	0.881028
0	H	0.636941	0.67963	0.877005
0	H	0.00823215	0.695017	0.906128
0	H	0.284772	0.306656	0.904969
0	H	0.674136	0.972819	0.909693
0	H	0.968971	0.288657	0.219775
0	H	0.692549	0.676825	0.221048
0	H	0.30296	0.0104685	0.216199
0	H	0.675259	0.0308421	0.246239
0	H	0.950082	0.641204	0.24575
0	H	0.340629	0.30405	0.248945
0	H	0.564886	0.534849	0.575108
0	H	0.446253	0.0237595	0.572185
0	H	0.956195	0.418019	0.575381
0	H	0.412281	0.449332	0.552638
0	H	0.531519	0.960136	0.551765
0	H	0.0210956	0.565603	0.55045
0	H	0.230194	0.865879	0.895424
0	H	0.113953	0.356188	0.897166
0	H	0.623483	0.752782	0.898462
0	H	0.0810317	0.78126	0.888387
0	H	0.198186	0.293011	0.887577
0	H	0.686615	0.899011	0.888504
0	H	0.896116	0.202463	0.237792
0	H	0.779026	0.690187	0.238442
0	H	0.290428	0.0842697	0.236944
0	H	0.746974	0.117759	0.229306
0	H	0.863321	0.627312	0.229265
0	H	0.353956	0.230779	0.228068
0	C	0.453623	0.544236	0.766454
0	C	0.438317	0.906174	0.765472
0	C	0.0738441	0.52484	0.766954
0	C	0.523633	0.439304	0.360722
0	C	0.539108	0.07752	0.35879
0	C	0.903519	0.458749	0.359148
0	C	0.118869	0.876227	0.0992031
0	C	0.105278	0.236053	0.0989607
0	C	0.743085	0.860133	0.100758
0	C	0.189574	0.769426	0.683836
0	C	0.208543	0.4134	0.685289
0	C	0.567895	0.792069	0.685515
0	C	0.78774	0.214152	0.44177
0	C	0.768788	0.570208	0.441382
0	C	0.409392	0.191502	0.439809
0	C	0.858149	0.10722	0.0265425
0	C	0.872082	0.747568	0.0272874
0	C	0.234089	0.1231	0.0247978
0	H	0.442465	0.551013	0.861163
0	H	0.43186	0.888914	0.860537
0	H	0.0916175	0.535478	0.861701
0	H	0.534805	0.432524	0.266024
0	H	0.545795	0.0947521	0.263681
0	H	0.885854	0.448255	0.264333
0	H	0.107861	0.878901	0.195801
0	H	0.101836	0.221873	0.195429
0	H	0.756804	0.87171	0.197186
0	H	0.200174	0.76586	0.587335
0	H	0.212541	0.427995	0.588965
0	H	0.554236	0.781052	0.588954
0	H	0.777091	0.217716	0.538251
0	H	0.765008	0.555674	0.537706
0	H	0.423203	0.202724	0.53628
0	H	0.869284	0.104454	0.930042
0	H	0.875378	0.761417	0.930669
0	H	0.220355	0.111892	0.928298
0	H	0.408962	0.528974	0.707943
0	H	0.453893	0.876428	0.707832
0	H	0.103521	0.569592	0.708817
0	H	0.568272	0.454526	0.419285
0	H	0.523418	0.10731	0.416077
0	H	0.873833	0.413855	0.416986
0	H	0.0736251	0.861985	0.0427782
0	H	0.120016	0.205159	0.0425958
0	H	0.773844	0.904999	0.0434727
0	H	0.234754	0.783295	0.740225
0	H	0.19401	0.444432	0.741757
0	H	0.53705	0.746827	0.741979
0	H	0.742573	0.200222	0.385308
0	H	0.783163	0.539131	0.384706
0	H	0.44021	0.236589	0.382989
0	H	0.903295	0.12143	0.0832319
0	H	0.857299	0.778574	0.083248
0	H	0.203323	0.0780066	0.0815885
0	H	0.4994	0.590376	0.733109
0	H	0.39194	0.905696	0.73182
0	H	0.0736295	0.47849	0.733279
0	H	0.477817	0.393177	0.393989
0	H	0.585386	0.0779715	0.392931
0	H	0.903597	0.504987	0.393078
0	H	0.163704	0.924246	0.0691137
0	H	0.0575282	0.233591	0.0678726
0	H	0.746118	0.814697	0.0717478
0	H	0.144348	0.721979	0.714671
0	H	0.255899	0.415172	0.716728
0	H	0.564816	0.837318	0.715475
0	H	0.832939	0.26164	0.41098
0	H	0.721359	0.568425	0.410353
0	H	0.41232	0.146129	0.410097
0	H	0.813223	0.0592662	0.0565812
0	H	0.919924	0.750254	0.0584373
0	H	0.231073	0.16843	0.0545652
0	C	0.563279	0.349697	0.079889
0	C	0.628905	0.208627	0.0797828
0	C	0.771732	0.419145	0.0813484
0	C	0.413603	0.633393	0.0466587
0	C	0.348148	0.774837	0.0446729
0	C	0.205502	0.564288	0.0445015
0	C	0.231106	0.682657	0.39981
0	C	0.29652	0.540192	0.401816
0	C	0.440135	0.750629	0.403804
0	C	0.0792976	0.965536	0.38279
0	C	0.0150236	0.109201	0.382222
0	C	0.871026	0.900476	0.382249
0	C	0.897865	0.0180192	0.742763
0	C	0.962219	0.874561	0.743721
0	C	0.106328	0.0833232	0.743285
0	C	0.746153	0.301024	0.72538
0	C	0.680693	0.443567	0.724564
0	C	0.537202	0.233296	0.721518
0	H	0.543166	0.317779	0.16118
0	H	0.660567	0.219752	0.161271
0	H	0.760775	0.439587	0.163392
0	H	0.433373	0.664934	0.96489
0	H	0.317175	0.763696	0.962308
0	H	0.216472	0.54435	0.96184
0	H	0.210687	0.650108	0.48032
0	H	0.329035	0.551878	0.482278
0	H	0.428458	0.770581	0.48567
0	H	0.0975701	0.995022	0.298554
0	H	0.984572	0.0980648	0.299197
0	H	0.881784	0.88268	0.296852
0	H	0.879216	0.988157	0.826543
0	H	0.993105	0.885688	0.826211
0	H	0.0956346	0.101742	0.828039
0	H	0.766173	0.333252	0.644424
0	H	0.648768	0.432005	0.643338
0	H	0.548975	0.214036	0.638877
0	H	0.619485	0.380769	0.0812186
0	H	0.597147	0.233458	0.0820443
0	H	0.746659	0.362775	0.0826815
0	H	0.357412	0.602165	0.0458949
0	H	0.379797	0.749875	0.0439921
0	H	0.23061	0.620663	0.044237
0	H	0.287287	0.714042	0.40212
0	H	0.264579	0.564809	0.404869
0	H	0.415625	0.694285	0.404787
0	H	0.0230757	0.935279	0.38627
0	H	0.0460732	0.0835835	0.383532
0	H	0.896713	0.956808	0.386983
0	H	0.954105	0.0481977	0.739908
0	H	0.931126	0.900139	0.743356
0	H	0.0806676	0.0269624	0.739814
0	H	0.689976	0.269537	0.723761
0	H	0.712589	0.418885	0.72259
0	H	0.561712	0.289642	0.721995
0	H	0.544462	0.318147	0.997646
0	H	0.66063	0.222144	0.997698
0	H	0.758334	0.438164	0.999868
0	H	0.432588	0.665345	0.128428
0	H	0.315775	0.761462	0.125917
0	H	0.218826	0.544747	0.125392
0	H	0.212934	0.651664	0.316867
0	H	0.327522	0.553371	0.318876
0	H	0.426844	0.769628	0.322184
0	H	0.100539	0.999266	0.462072
0	H	0.982111	0.096559	0.462653
0	H	0.883876	0.878379	0.460151
0	H	0.876869	0.984653	0.663007
0	H	0.994719	0.887246	0.662723
0	H	0.0933759	0.104837	0.664658
0	H	0.764603	0.332345	0.807936
0	H	0.649112	0.430326	0.806798
0	H	0.550388	0.213621	0.802381
0	C	0.691865	0.539042	0.157364
0	C	0.440642	0.148407	0.154793
0	C	0.83062	0.288848	0.156552
0	C	0.285388	0.444147	0.969813
0	C	0.536032	0.834313	0.970023
0	C	0.146601	0.694513	0.969009
0	C	0.357351	0.871953	0.478857
0	C	0.106235	0.476977	0.479595
0	C	0.501962	0.621947	0.479157
0	C	0.949326	0.779177	0.310152
0	C	0.202004	0.166445	0.307946
0	C	0.813551	0.0314619	0.310755
0	C	0.0278098	0.204478	0.816108
0	C	0.774937	0.817122	0.817719
0	C	0.163805	0.952225	0.814906
0	C	0.61992	0.11177	0.645949
0	C	0.870813	0.506676	0.646723
0	C	0.475613	0.361884	0.647257
0	H	0.731146	0.529687	0.198026
0	H	0.449641	0.196704	0.196326
0	H	0.782238	0.250678	0.198248
0	H	0.245669	0.453001	0.929642
0	H	0.526715	0.78585	0.928748
0	H	0.194965	0.732696	0.92729
0	H	0.397576	0.864199	0.519828
0	H	0.113251	0.524535	0.521175
0	H	0.454394	0.58156	0.519713
0	H	0.910523	0.789577	0.270417
0	H	0.192789	0.117923	0.267108
0	H	0.86183	0.0706798	0.270341
0	H	0.0662929	0.19378	0.856354
0	H	0.784137	0.865604	0.858718
0	H	0.115515	0.913112	0.855442
0	H	0.579486	0.119348	0.605416
0	H	0.863826	0.459128	0.605148
0	H	0.523218	0.402419	0.607048
0	H	0.648308	0.525179	0.218021
0	H	0.455033	0.11849	0.214427
0	H	0.860961	0.332715	0.216125
0	H	0.328873	0.458442	0.908761
0	H	0.521662	0.864221	0.910331
0	H	0.116336	0.650572	0.909551
0	H	0.313278	0.856372	0.539039
0	H	0.121448	0.447967	0.539902
0	H	0.530273	0.665601	0.540225
0	H	0.993181	0.793695	0.249884
0	H	0.187055	0.195851	0.248107
0	H	0.784653	0.987402	0.250721
0	H	0.983816	0.190171	0.875921
0	H	0.789613	0.787527	0.877632
0	H	0.192901	0.996237	0.874945
0	H	0.663867	0.127485	0.585401
0	H	0.855376	0.535553	0.586542
0	H	0.447598	0.318232	0.586061
0	H	0.714704	0.592731	0.126936
0	H	0.387017	0.118001	0.124795
0	H	0.860324	0.264435	0.126572
0	H	0.263085	0.390489	0.000140872
0	H	0.589749	0.864609	0.999612
0	H	0.116804	0.718865	0.998789
0	H	0.37868	0.925561	0.448803
0	H	0.0530889	0.445315	0.447896
0	H	0.534026	0.600406	0.4478
0	H	0.925929	0.724984	0.337886
0	H	0.255825	0.197066	0.336755
0	H	0.782391	0.0545124	0.339605
0	H	0.0515382	0.258692	0.788359
0	H	0.721188	0.786643	0.788452
0	H	0.194771	0.929011	0.785807
0	H	0.598818	0.0581756	0.675926
0	H	0.924003	0.538452	0.678135
0	H	0.443298	0.383215	0.678239
