#******************************************
#
# CIF file created by Zeo++
# Zeo++ is an open source package to
# analyze microporous materials
#
#*******************************************

_cell_length_a		21.5193(0)
_cell_length_b		23.7768(0)
_cell_length_c		9.20038(0)
_cell_angle_alpha		90(0)
_cell_angle_beta		90(0)
_cell_angle_gamma		90(0)

_symmetry_space_group_name_H-M		'P1'
_symmetry_Int_Tables_number		1
_symmetry_cell_setting		Monoclinic

loop_
_symmetry_equiv_pos_as_xyz
'+x,+y,+z'

loop_
_atom_site_label
_atom_site_type_symbol
_atom_site_fract_x
_atom_site_fract_y
_atom_site_fract_z
0	N	0.126263	0.543957	0.543133
0	N	0.359391	0.453579	0.0429813
0	N	0.855716	0.04391	0.973457
0	N	0.622207	0.952846	0.469774
0	N	0.856475	0.453888	0.471998
0	N	0.622996	0.544683	0.971488
0	N	0.126898	0.954132	0.0413677
0	N	0.360553	0.0452859	0.545137
0	N	0.284926	0.617776	0.573759
0	N	0.201781	0.379228	0.0750426
0	N	0.697654	0.11793	0.94238
0	N	0.780466	0.878925	0.4384
0	N	0.697777	0.380259	0.441411
0	N	0.780648	0.61884	0.939768
0	N	0.285035	0.880014	0.0726307
0	N	0.202069	0.119146	0.576453
0	N	0.267957	0.458358	0.76887
0	N	0.218202	0.538922	0.270329
0	N	0.714322	0.95848	0.745069
0	N	0.763666	0.0386844	0.245526
0	N	0.71487	0.539761	0.246293
0	N	0.764407	0.459308	0.744594
0	N	0.268362	0.0394885	0.269965
0	N	0.218971	0.959355	0.769158
0	N	0.301421	0.595094	0.0258073
0	N	0.185796	0.401527	0.527062
0	N	0.681118	0.0952313	0.490249
0	N	0.796742	0.901592	0.986892
0	N	0.681225	0.403062	0.989276
0	N	0.796961	0.596592	0.488111
0	N	0.301473	0.902728	0.524582
0	N	0.186004	0.0964011	0.0282285
0	C	0.0339613	0.517407	0.834581
0	C	0.45216	0.480531	0.329939
0	C	0.948637	0.0177896	0.683509
0	C	0.530226	0.980447	0.18196
0	C	0.9487	0.480601	0.180452
0	C	0.530369	0.517616	0.684664
0	C	0.0339899	0.980309	0.331352
0	C	0.452389	0.0176526	0.832896
0	C	0.0895496	0.485381	0.856589
0	C	0.396728	0.51251	0.354737
0	C	0.893193	0.985627	0.660864
0	C	0.585737	0.0123445	0.157576
0	C	0.893105	0.512624	0.158507
0	C	0.58578	0.48561	0.659876
0	C	0.0894563	0.0124505	0.353993
0	C	0.396882	0.985753	0.857266
0	C	0.0910912	0.430268	0.814148
0	C	0.394702	0.567599	0.312311
0	C	0.891696	0.930527	0.703458
0	C	0.587756	0.0674765	0.199715
0	C	0.891568	0.567737	0.200963
0	C	0.587774	0.430518	0.702285
0	C	0.0909786	0.0675451	0.311359
0	C	0.394866	0.930622	0.815134
0	C	0.0371376	0.407364	0.744186
0	C	0.448002	0.590471	0.239622
0	C	0.94558	0.90776	0.773982
0	C	0.534405	0.0904875	0.271889
0	C	0.945535	0.590648	0.27088
0	C	0.534445	0.407668	0.774893
0	C	0.0370895	0.0903335	0.240895
0	C	0.448188	0.907625	0.742832
0	C	0.984529	0.438692	0.717584
0	C	0.500315	0.559144	0.210261
0	C	0.998051	0.939216	0.800956
0	C	0.482055	0.0591953	0.301005
0	C	0.998141	0.559311	0.297455
0	C	0.482137	0.439011	0.804213
0	C	0.984593	0.0589119	0.214002
0	C	0.500521	0.938934	0.713626
0	C	0.981406	0.496208	0.763812
0	C	0.503932	0.501595	0.255951
0	C	0.00109163	0.996755	0.754912
0	C	0.478393	0.00161977	0.255471
0	C	0.00126102	0.501798	0.251226
0	C	0.478566	0.496567	0.758563
0	C	0.981537	0.00136563	0.259993
0	C	0.504201	0.996495	0.759286
0	C	0.930804	0.534745	0.745026
0	C	0.554053	0.462848	0.23338
0	C	0.0514484	0.035493	0.774542
0	C	0.4281	0.963021	0.277522
0	C	0.051847	0.463247	0.270035
0	C	0.428449	0.535325	0.781057
0	C	0.931171	0.962649	0.240312
0	C	0.554501	0.0350988	0.737279
0	C	0.935553	0.588975	0.795993
0	C	0.549583	0.408518	0.283715
0	C	0.0466346	0.0897402	0.723611
0	C	0.432466	0.908685	0.227114
0	C	0.04709	0.409017	0.219088
0	C	0.432954	0.589648	0.730693
0	C	0.935988	0.908372	0.291047
0	C	0.550161	0.089412	0.787863
0	C	0.989476	0.609398	0.871238
0	C	0.496558	0.388272	0.362649
0	C	0.992855	0.109968	0.647484
0	C	0.485577	0.888346	0.148729
0	C	0.993169	0.388606	0.143831
0	C	0.48599	0.609871	0.651753
0	C	0.989767	0.888109	0.367112
0	C	0.497043	0.10974	0.866268
0	C	0.0383008	0.573513	0.891495
0	C	0.448267	0.424391	0.386722
0	C	0.94427	0.0738708	0.626477
0	C	0.53407	0.92429	0.125289
0	C	0.944345	0.424491	0.123574
0	C	0.534274	0.573736	0.627772
0	C	0.0383426	0.924209	0.388261
0	C	0.44854	0.0738045	0.889622
0	C	0.0983806	0.576279	0.976822
0	C	0.389022	0.421658	0.475086
0	C	0.884414	0.0763937	0.54026
0	C	0.593505	0.921348	0.0376534
0	C	0.88426	0.421733	0.0382819
0	C	0.593519	0.576441	0.539404
0	C	0.0981831	0.921664	0.474542
0	C	0.389076	0.0767474	0.977164
0	C	0.138312	0.52497	0.918629
0	C	0.348485	0.472795	0.418357
0	C	0.844459	0.0250276	0.598039
0	C	0.634005	0.972487	0.0946202
0	C	0.844337	0.473036	0.0965334
0	C	0.634036	0.525301	0.596198
0	C	0.13817	0.973014	0.416781
0	C	0.348596	0.0255998	0.920178
0	C	0.185516	0.539345	0.793159
0	C	0.30087	0.458108	0.293875
0	C	0.796912	0.0394001	0.722867
0	C	0.681284	0.957765	0.219656
0	C	0.79716	0.458646	0.22205
0	C	0.681617	0.540009	0.720754
0	C	0.185706	0.958613	0.291954
0	C	0.301328	0.0402944	0.795064
0	C	0.220937	0.597866	0.811685
0	C	0.266084	0.399248	0.312468
0	C	0.761583	0.0979912	0.704418
0	C	0.716235	0.899016	0.200925
0	C	0.761704	0.400156	0.20339
0	C	0.716423	0.598867	0.702197
0	C	0.220993	0.899998	0.310412
0	C	0.266338	0.0990287	0.81384
0	C	0.17039	0.642806	0.836864
0	C	0.317242	0.354741	0.33661
0	C	0.812214	0.142888	0.679527
0	C	0.665271	0.854391	0.176257
0	C	0.812211	0.35519	0.178134
0	C	0.665277	0.643365	0.677931
0	C	0.170328	0.855131	0.335283
0	C	0.317285	0.143677	0.838505
0	C	0.135802	0.630251	0.983723
0	C	0.351861	0.367608	0.483217
0	C	0.846765	0.130214	0.53272
0	C	0.630555	0.867198	0.0297482
0	C	0.846822	0.367775	0.0313158
0	C	0.6307	0.630487	0.531286
0	C	0.135797	0.867826	0.482105
0	C	0.352015	0.130891	0.985013
0	C	0.105171	0.685906	0.0191195
0	C	0.382923	0.312206	0.519099
0	C	0.877206	0.185878	0.496548
0	C	0.599342	0.811793	0.994556
0	C	0.877438	0.31212	0.995859
0	C	0.599631	0.685883	0.495376
0	C	0.105337	0.81218	0.518339
0	C	0.383209	0.186316	0.0201757
0	C	0.0586425	0.702187	0.111005
0	C	0.429542	0.296399	0.611218
0	C	0.923546	0.202077	0.404109
0	C	0.55251	0.795913	0.903087
0	C	0.923947	0.295847	0.903916
0	C	0.553011	0.701678	0.403259
0	C	0.0589755	0.796009	0.610744
0	C	0.430039	0.202224	0.111639
0	C	0.0461624	0.761185	0.125733
0	C	0.442532	0.237499	0.626604
0	C	0.935858	0.261088	0.38848
0	C	0.539278	0.737035	0.888721
0	C	0.936426	0.23685	0.889143
0	C	0.539994	0.760573	0.387905
0	C	0.0466714	0.737001	0.62651
0	C	0.44325	0.261108	0.125948
0	C	0.0800222	0.801722	0.0540263
0	C	0.409118	0.196615	0.555092
0	C	0.902051	0.3017	0.46002
0	C	0.572744	0.696193	0.960283
0	C	0.902569	0.196304	0.960809
0	C	0.57339	0.801468	0.459448
0	C	0.0804785	0.696365	0.555083
0	C	0.409759	0.30192	0.0543373
0	C	0.130247	0.785925	0.960157
0	C	0.358919	0.211941	0.460538
0	C	0.852055	0.285959	0.554693
0	C	0.62324	0.711572	0.0538408
0	C	0.852325	0.212093	0.0546393
0	C	0.623591	0.786154	0.554014
0	C	0.130455	0.712081	0.460317
0	C	0.359266	0.286517	0.960826
0	C	0.172176	0.822111	0.883207
0	C	0.317611	0.175358	0.382982
0	C	0.810303	0.322255	0.631888
0	C	0.664709	0.675057	0.131065
0	C	0.810363	0.175903	0.131457
0	C	0.664881	0.822745	0.631632
0	C	0.172171	0.675762	0.383103
0	C	0.317772	0.323011	0.883605
0	C	0.218412	0.799664	0.797734
0	C	0.271577	0.197376	0.296146
0	C	0.764449	0.29987	0.718616
0	C	0.711208	0.697113	0.216446
0	C	0.764087	0.198342	0.216844
0	C	0.710913	0.800727	0.718475
0	C	0.217991	0.698121	0.296219
0	C	0.271273	0.300941	0.798275
0	C	0.225323	0.740245	0.774779
0	C	0.264101	0.256721	0.272746
0	C	0.757696	0.240466	0.7424
0	C	0.718878	0.756469	0.239052
0	C	0.7572	0.257756	0.239929
0	C	0.718403	0.74138	0.741838
0	C	0.224771	0.75752	0.27239
0	C	0.263627	0.24158	0.77571
0	C	0.185384	0.704872	0.845038
0	C	0.303193	0.292491	0.344357
0	C	0.797311	0.204991	0.671399
0	C	0.679448	0.792172	0.168327
0	C	0.797183	0.293134	0.16981
0	C	0.679326	0.705615	0.670196
0	C	0.185192	0.793017	0.34344
0	C	0.303072	0.205886	0.84642
0	C	0.139847	0.728188	0.942375
0	C	0.34873	0.269589	0.442381
0	C	0.842566	0.228232	0.573188
0	C	0.6336	0.769224	0.0712226
0	C	0.842731	0.269828	0.0724905
0	C	0.633799	0.728509	0.572139
0	C	0.13995	0.769803	0.441717
0	C	0.348926	0.228859	0.943494
0	C	0.152316	0.541757	0.652488
0	C	0.333613	0.455855	0.152636
0	C	0.829793	0.0417002	0.863922
0	C	0.648159	0.955262	0.360386
0	C	0.830399	0.456163	0.362683
0	C	0.648799	0.542324	0.86186
0	C	0.152831	0.956338	0.150878
0	C	0.334472	0.0428357	0.654449
0	C	0.231805	0.49383	0.781588
0	C	0.25432	0.503422	0.28297
0	C	0.750529	0.993942	0.733285
0	C	0.727665	0.0031606	0.231855
0	C	0.75091	0.504195	0.233666
0	C	0.728177	0.494711	0.731825
0	C	0.232128	0.00404418	0.281608
0	C	0.254973	0.994888	0.782857
0	C	0.256727	0.609378	0.678129
0	C	0.230124	0.387636	0.179196
0	C	0.725785	0.109503	0.837921
0	C	0.752162	0.887353	0.334207
0	C	0.725894	0.388635	0.336924
0	C	0.752343	0.610467	0.835539
0	C	0.256801	0.888466	0.17692
0	C	0.230395	0.110687	0.680603
0	C	0.265774	0.595724	0.932177
0	C	0.221344	0.401021	0.433301
0	C	0.71672	0.0959062	0.583863
0	C	0.760998	0.900973	0.0802847
0	C	0.716864	0.402369	0.0828677
0	C	0.761246	0.597095	0.581509
0	C	0.265867	0.902065	0.430964
0	C	0.221611	0.0970424	0.934573
0	H	0.131819	0.403628	0.829325
0	H	0.354125	0.594198	0.329367
0	H	0.851082	0.903789	0.687988
0	H	0.628349	0.0940501	0.182806
0	H	0.850826	0.594363	0.185849
0	H	0.628327	0.40389	0.685225
0	H	0.13161	0.0942692	0.326775
0	H	0.354281	0.904044	0.832093
0	H	0.0394388	0.363606	0.709009
0	H	0.445332	0.634205	0.204318
0	H	0.943367	0.864011	0.809277
0	H	0.537054	0.134268	0.306922
0	H	0.943235	0.634404	0.306079
0	H	0.537072	0.363923	0.810123
0	H	0.0393261	0.134079	0.205572
0	H	0.445534	0.86385	0.707762
0	H	0.944807	0.420844	0.659762
0	H	0.539494	0.577076	0.150755
0	H	0.0377611	0.921457	0.858981
0	H	0.442814	0.0772036	0.360152
0	H	0.0378672	0.57716	0.355284
0	H	0.442922	0.421084	0.863592
0	H	0.944875	0.0766846	0.156039
0	H	0.539726	0.920943	0.654319
0	H	0.889383	0.520105	0.688359
0	H	0.59486	0.477315	0.174087
0	H	0.0927539	0.0209965	0.831922
0	H	0.38725	0.977607	0.336418
0	H	0.0932662	0.477882	0.32674
0	H	0.387613	0.520868	0.840253
0	H	0.889856	0.977167	0.183015
0	H	0.595324	0.0205267	0.678266
0	H	0.897121	0.618265	0.781286
0	H	0.587468	0.378996	0.265194
0	H	0.0848821	0.119171	0.739088
0	H	0.394453	0.879268	0.245069
0	H	0.0855021	0.379709	0.23384
0	H	0.395066	0.619175	0.749137
0	H	0.897741	0.878954	0.275484
0	H	0.588183	0.118828	0.769981
0	H	0.989787	0.652488	0.910849
0	H	0.496437	0.345154	0.402077
0	H	0.992449	0.153087	0.60779
0	H	0.485601	0.845244	0.109255
0	H	0.99285	0.345515	0.104238
0	H	0.486111	0.652972	0.612214
0	H	0.990186	0.844966	0.406636
0	H	0.497031	0.152835	0.905818
0	H	0.0850115	0.565181	0.0923798
0	H	0.403328	0.432777	0.59
0	H	0.898117	0.0653407	0.424897
0	H	0.579485	0.932458	0.922572
0	H	0.897619	0.432843	0.922718
0	H	0.579222	0.565324	0.424495
0	H	0.0844581	0.932729	0.589886
0	H	0.40307	0.0656396	0.0922588
0	H	0.164295	0.506022	0.0107132
0	H	0.322821	0.491606	0.511115
0	H	0.818692	0.00601444	0.505642
0	H	0.659864	0.991209	0.00214036
0	H	0.818332	0.491973	0.0044635
0	H	0.659703	0.506468	0.503488
0	H	0.163951	0.99201	0.509185
0	H	0.322724	0.00687141	0.0126354
0	H	0.135557	0.639229	0.745219
0	H	0.351907	0.358768	0.244702
0	H	0.847007	0.139246	0.771261
0	H	0.630569	0.858299	0.268151
0	H	0.847043	0.358717	0.269808
0	H	0.630568	0.639354	0.769758
0	H	0.135525	0.858778	0.243554
0	H	0.351975	0.139783	0.746592
0	H	0.171386	0.624118	0.0730704
0	H	0.316347	0.373702	0.572677
0	H	0.811155	0.123909	0.443585
0	H	0.665997	0.873161	0.940138
0	H	0.811248	0.37393	0.941965
0	H	0.666226	0.624384	0.441873
0	H	0.171414	0.874128	0.571255
0	H	0.316569	0.124932	0.0746145
0	H	0.0314862	0.672143	0.173472
0	H	0.456439	0.326769	0.673339
0	H	0.950701	0.171932	0.341935
0	H	0.525605	0.826173	0.840698
0	H	0.951092	0.325894	0.841423
0	H	0.526133	0.671303	0.341126
0	H	0.0317917	0.826169	0.672811
0	H	0.456949	0.171969	0.17404
0	H	0.00855028	0.773571	0.198519
0	H	0.480162	0.225497	0.69982
0	H	0.973282	0.273415	0.315039
0	H	0.50137	0.725001	0.816363
0	H	0.974018	0.224472	0.816291
0	H	0.502357	0.772563	0.314705
0	H	0.00922834	0.7247	0.69993
0	H	0.481154	0.27317	0.198295
0	H	0.0689887	0.846154	0.0668376
0	H	0.42045	0.152241	0.568445
0	H	0.912882	0.346168	0.446458
0	H	0.561169	0.651854	0.947656
0	H	0.913598	0.151872	0.947971
0	H	0.562032	0.845835	0.446109
0	H	0.0696637	0.651899	0.568766
0	H	0.421321	0.346268	0.0669177
0	H	0.166908	0.86757	0.89323
0	H	0.323287	0.129956	0.393578
0	H	0.815443	0.367725	0.621096
0	H	0.65887	0.629654	0.121379
0	H	0.815617	0.130444	0.121391
0	H	0.659188	0.868144	0.62108
0	H	0.167026	0.630294	0.393961
0	H	0.323605	0.368416	0.893284
0	H	0.251359	0.827531	0.743247
0	H	0.239223	0.169173	0.240801
0	H	0.731667	0.327773	0.773592
0	H	0.743772	0.668928	0.271108
0	H	0.731096	0.170466	0.271145
0	H	0.743256	0.828934	0.773868
0	H	0.250717	0.670191	0.241151
0	H	0.238684	0.3291	0.743613
0	H	0.261254	0.725609	0.701068
0	H	0.228488	0.271044	0.197715
0	H	0.722123	0.22587	0.817249
0	H	0.754911	0.770792	0.31287
0	H	0.721231	0.272385	0.31355
0	H	0.754011	0.727054	0.816881
0	H	0.260306	0.772091	0.197413
0	H	0.227587	0.227245	0.701927
