#******************************************
#
# CIF file created by Zeo++
# Zeo++ is an open source package to
# analyze microporous materials
#
#*******************************************

_cell_length_a		14.3824(0)
_cell_length_b		14.2518(0)
_cell_length_c		20.9054(0)
_cell_angle_alpha		90(0)
_cell_angle_beta		90(0)
_cell_angle_gamma		119.188(0)

_symmetry_space_group_name_H-M		'P1'
_symmetry_Int_Tables_number		1
_symmetry_cell_setting		Monoclinic

loop_
_symmetry_equiv_pos_as_xyz
'+x,+y,+z'

loop_
_atom_site_label
_atom_site_type_symbol
_atom_site_fract_x
_atom_site_fract_y
_atom_site_fract_z
0	C	0.413349	0.228529	0.586482
0	C	0.771883	0.195198	0.922223
0	C	0.803002	0.588632	0.253557
0	C	0.583206	0.784113	0.0871994
0	C	0.21916	0.811898	0.419495
0	C	0.189122	0.425401	0.755469
0	C	0.428171	0.179674	0.525978
0	C	0.819255	0.257575	0.861537
0	C	0.740741	0.57559	0.193065
0	C	0.568027	0.832747	0.0267352
0	C	0.172854	0.749842	0.358572
0	C	0.251108	0.437108	0.695045
0	H	0.360167	0.160535	0.493314
0	H	0.838915	0.208045	0.828965
0	H	0.788867	0.64495	0.161035
0	H	0.635628	0.851435	0.993824
0	H	0.152792	0.799125	0.326051
0	H	0.202717	0.367187	0.663446
0	H	0.425395	0.101638	0.535119
0	H	0.89606	0.331664	0.870438
0	H	0.666495	0.579024	0.202474
0	H	0.571253	0.911004	0.035788
0	H	0.0964	0.675234	0.367212
0	H	0.325299	0.433661	0.70462
0	C	0.533784	0.258828	0.494362
0	C	0.739582	0.285271	0.830065
0	C	0.71505	0.469568	0.160333
0	C	0.461972	0.75362	0.99555
0	C	0.25332	0.723244	0.327128
0	C	0.276819	0.542584	0.661605
0	H	0.544759	0.222965	0.45
0	H	0.774285	0.331359	0.785614
0	H	0.670391	0.461031	0.115612
0	H	0.450774	0.789112	0.951105
0	H	0.219225	0.677748	0.282401
0	H	0.321542	0.55042	0.617006
0	H	0.600609	0.271472	0.526129
0	H	0.726501	0.339992	0.861867
0	H	0.660471	0.401572	0.191128
0	H	0.395555	0.741715	0.0274608
0	H	0.26638	0.668303	0.358737
0	H	0.331328	0.61112	0.6921
0	C	0.541254	0.369063	0.479274
0	C	0.630899	0.184358	0.815433
0	C	0.815876	0.459763	0.145639
0	C	0.453739	0.642946	0.980777
0	C	0.361932	0.824597	0.31303
0	C	0.175892	0.551923	0.646423
0	C	0.452955	0.35453	0.430792
0	C	0.645679	0.109112	0.767369
0	C	0.890007	0.549371	0.0981018
0	C	0.541291	0.656369	0.932
0	C	0.347209	0.8996	0.264746
0	C	0.101987	0.461377	0.599311
0	H	0.374478	0.297805	0.452989
0	H	0.700943	0.0844428	0.790018
0	H	0.911944	0.62848	0.120982
0	H	0.620124	0.713073	0.95381
0	H	0.29094	0.923324	0.286975
0	H	0.0801213	0.382697	0.622741
0	C	0.46094	0.303528	0.367287
0	C	0.697913	0.167234	0.704261
0	C	0.833245	0.544273	0.0344147
0	C	0.532809	0.70665	0.868326
0	C	0.296687	0.841806	0.201243
0	C	0.159149	0.465538	0.535951
0	H	0.540448	0.354518	0.34561
0	H	0.649454	0.20032	0.682734
0	H	0.803759	0.463775	0.01253
0	H	0.452951	0.655689	0.847058
0	H	0.346752	0.810434	0.179886
0	H	0.188802	0.545736	0.513587
0	H	0.456138	0.224734	0.376796
0	H	0.776867	0.237481	0.714356
0	H	0.761491	0.55216	0.0438276
0	H	0.538219	0.785819	0.877502
0	H	0.218255	0.77044	0.210789
0	H	0.230771	0.457736	0.545894
0	C	0.373863	0.287994	0.319087
0	C	0.71138	0.0938388	0.655673
0	C	0.905054	0.631309	0.986411
0	C	0.619095	0.720977	0.819821
0	C	0.282332	0.914817	0.152762
0	C	0.0876065	0.377913	0.488211
0	H	0.294944	0.227315	0.337082
0	H	0.769567	0.0706579	0.673645
0	H	0.924236	0.711672	0.00439847
0	H	0.698383	0.781627	0.837327
0	H	0.223059	0.936577	0.170651
0	H	0.0681306	0.29774	0.506686
0	H	0.385923	0.254971	0.27369
0	H	0.745575	0.138668	0.610599
0	H	0.861383	0.620549	0.940859
0	H	0.606578	0.753398	0.774324
0	H	0.249048	0.870227	0.107507
0	H	0.131524	0.387956	0.442836
0	C	0.375715	0.395475	0.306552
0	C	0.603382	0.993129	0.642444
0	C	0.00808036	0.625919	0.974322
0	C	0.616519	0.613036	0.807701
0	C	0.389608	0.0167519	0.140069
0	C	0.984854	0.383479	0.475507
0	C	0.277026	0.387186	0.269914
0	C	0.608599	0.901122	0.604486
0	C	0.0980126	0.724309	0.937852
0	C	0.714544	0.620333	0.770707
0	C	0.383151	0.108673	0.10275
0	C	0.895355	0.285152	0.438872
0	H	0.20452	0.316226	0.289324
0	H	0.677518	0.894098	0.623436
0	H	0.100061	0.798432	0.956977
0	H	0.787443	0.691539	0.789508
0	H	0.313667	0.114364	0.122029
0	H	0.892853	0.210951	0.458243
0	C	0.275286	0.491149	0.290868
0	C	0.503641	0.799275	0.624568
0	C	0.201044	0.723098	0.959405
0	C	0.716317	0.516638	0.792226
0	C	0.487447	0.210924	0.123247
0	C	0.792123	0.286584	0.459733
0	H	0.312792	0.554498	0.254217
0	H	0.441316	0.778346	0.587922
0	H	0.225926	0.683602	0.923049
0	H	0.678689	0.45278	0.755883
0	H	0.550144	0.232689	0.0867433
0	H	0.767702	0.325967	0.423041
0	H	0.192905	0.475746	0.296549
0	H	0.516086	0.729251	0.629257
0	H	0.267622	0.80549	0.965
0	H	0.798744	0.532184	0.797949
0	H	0.474198	0.280429	0.128114
0	H	0.725397	0.204274	0.465256
0	C	0.337498	0.528869	0.354591
0	C	0.467409	0.824949	0.688826
0	C	0.175891	0.660636	0.0233104
0	C	0.654399	0.47972	0.85608
0	C	0.523543	0.185085	0.187504
0	C	0.816595	0.349307	0.523528
0	H	0.411928	0.606503	0.347994
0	H	0.39212	0.827725	0.682627
0	H	0.178645	0.584696	0.0172156
0	H	0.57963	0.40236	0.849703
0	H	0.599601	0.18377	0.181549
0	H	0.814101	0.425337	0.517038
0	H	0.291163	0.542389	0.391842
0	H	0.451687	0.763183	0.72526
0	H	0.234318	0.706991	0.0606962
0	H	0.700616	0.466063	0.893344
0	H	0.537734	0.245937	0.224261
0	H	0.757664	0.303211	0.560733
0	C	0.361017	0.438178	0.372762
0	C	0.559752	0.935136	0.708137
0	C	0.0634995	0.639155	0.0408494
0	C	0.631717	0.571065	0.874035
0	C	0.432062	0.0739352	0.206125
0	C	0.928713	0.370687	0.541727
0	H	0.286898	0.373004	0.395439
0	H	0.62273	0.920795	0.730259
0	H	0.0724479	0.714384	0.0635864
0	H	0.706235	0.63626	0.896315
0	H	0.368019	0.0867877	0.22811
0	H	0.91942	0.295593	0.564841
0	C	0.453437	0.462464	0.418617
0	C	0.538144	0.00508884	0.755082
0	C	0.995094	0.545934	0.0862174
0	C	0.539931	0.547905	0.920178
0	C	0.454326	0.0043554	0.252967
0	C	0.996778	0.464308	0.586907
0	H	0.530473	0.520787	0.395928
0	H	0.480532	0.0272084	0.733411
0	H	0.975829	0.467909	0.0630933
0	H	0.462472	0.489754	0.897832
0	H	0.512802	0.983321	0.231397
0	H	0.0159383	0.54206	0.563464
0	C	0.44122	0.510901	0.48181
0	C	0.491185	0.94515	0.818344
0	C	0.0535581	0.555229	0.149578
0	C	0.552313	0.499708	0.983423
0	C	0.500152	0.0640151	0.316473
0	C	0.938203	0.455513	0.650141
0	H	0.360682	0.459787	0.502028
0	H	0.542103	0.913519	0.83794
0	H	0.0836634	0.636502	0.170251
0	H	0.633247	0.550322	0.00330874
0	H	0.448421	0.0948458	0.335821
0	H	0.908992	0.374767	0.671363
0	H	0.446879	0.58994	0.47235
0	H	0.412784	0.873761	0.809153
0	H	0.124945	0.546857	0.140197
0	H	0.545599	0.420159	0.974121
0	H	0.57837	0.135852	0.307622
0	H	0.866277	0.462814	0.640547
0	C	0.526228	0.52383	0.530568
0	C	0.478886	0.0179293	0.867654
0	C	0.981215	0.469574	0.197761
0	C	0.468202	0.4881	0.0324912
0	C	0.512538	0.99136	0.365828
0	C	0.0102234	0.542435	0.697807
0	H	0.606052	0.584443	0.51252
0	H	0.417514	0.038139	0.850489
0	H	0.962191	0.388744	0.179573
0	H	0.38795	0.427615	0.0150032
0	H	0.574458	0.971782	0.348842
0	H	0.028951	0.622729	0.678808
0	H	0.514459	0.55651	0.575929
0	H	0.448147	0.974091	0.913194
0	H	0.0240236	0.480076	0.24341
0	H	0.480316	0.455869	0.0779371
0	H	0.542589	0.035035	0.411467
0	H	0.967365	0.532858	0.743335
0	C	0.526626	0.41749	0.543168
0	C	0.583682	0.123043	0.879592
0	C	0.876387	0.471368	0.209815
0	C	0.468842	0.595023	0.0447322
0	C	0.408088	0.885686	0.377398
0	C	0.115296	0.541429	0.71041
0	H	0.596445	0.435252	0.574445
0	H	0.565473	0.176164	0.910526
0	H	0.824074	0.400373	0.240305
0	H	0.399762	0.578299	0.0764136
0	H	0.426659	0.832788	0.408336
0	H	0.167423	0.613249	0.740419
0	C	0.425483	0.339007	0.580273
0	C	0.662463	0.0993243	0.916938
0	C	0.898813	0.573202	0.2477
0	C	0.570911	0.673566	0.0810432
0	C	0.328368	0.90826	0.414576
0	C	0.0932432	0.440593	0.74925
0	H	0.426282	0.372707	0.628348
0	H	0.629846	0.0688144	0.965405
0	H	0.929671	0.570118	0.295965
0	H	0.571027	0.640284	0.129116
0	H	0.360409	0.938643	0.463149
0	H	0.0626601	0.444834	0.797397
0	H	0.353405	0.331619	0.556035
0	H	0.669751	0.03315	0.893538
0	H	0.963604	0.645687	0.224287
0	H	0.642384	0.680554	0.0562393
0	H	0.320675	0.974227	0.391198
0	H	0.0283246	0.367483	0.726412
0	C	0.275275	0.374198	0.196474
0	C	0.621892	0.91425	0.53114
0	C	0.0883764	0.726315	0.864305
0	C	0.715095	0.631959	0.697189
0	C	0.369815	0.0968569	0.0293653
0	C	0.90617	0.283167	0.365412
0	H	0.345588	0.445517	0.175412
0	H	0.552267	0.918272	0.510536
0	H	0.0898279	0.654735	0.843648
0	H	0.644351	0.560304	0.676749
0	H	0.439734	0.093909	0.00830748
0	H	0.904968	0.354708	0.3445
0	C	0.172578	0.368557	0.169373
0	C	0.624735	0.815501	0.50264
0	C	0.184482	0.829177	0.837584
0	C	0.817097	0.636779	0.669446
0	C	0.365983	0.195718	0.0018745
0	C	0.810575	0.180177	0.338486
0	H	0.165345	0.438535	0.186075
0	H	0.553362	0.740436	0.517881
0	H	0.259991	0.836777	0.85621
0	H	0.823531	0.566099	0.685662
0	H	0.437213	0.270736	0.0173621
0	H	0.734799	0.171142	0.357646
0	H	0.102011	0.296542	0.188839
0	H	0.694127	0.811034	0.522467
0	H	0.181499	0.901111	0.855289
0	H	0.888269	0.708154	0.688899
0	H	0.296476	0.199378	0.0222413
0	H	0.814824	0.108516	0.35544
0	C	0.168332	0.365001	0.0962138
0	C	0.630738	0.817937	0.429508
0	C	0.188283	0.83123	0.764397
0	C	0.820521	0.640846	0.59626
0	C	0.35951	0.194688	0.928777
0	C	0.805985	0.179185	0.265334
0	H	0.225728	0.443956	0.075054
0	H	0.553143	0.79975	0.40763
0	H	0.208701	0.770571	0.745304
0	H	0.762655	0.561989	0.575134
0	H	0.436795	0.212854	0.906479
0	H	0.784682	0.239541	0.24692
0	H	0.194327	0.308136	0.0771329
0	H	0.687639	0.900533	0.411832
0	H	0.107835	0.806786	0.743889
0	H	0.794328	0.69794	0.5778
0	H	0.302078	0.112563	0.910695
0	H	0.886221	0.204416	0.244272
0	C	0.0578174	0.329178	0.0723437
0	C	0.667476	0.742708	0.404957
0	C	0.264032	0.941249	0.739767
0	C	0.930555	0.676803	0.571477
0	C	0.323357	0.270987	0.905288
0	C	0.730354	0.0691881	0.240597
0	C	0.279912	0.272527	0.177818
0	C	0.724207	0.0171948	0.513355
0	C	0.98432	0.723255	0.844438
0	C	0.710209	0.733351	0.678159
0	C	0.267997	0.99371	0.0111772
0	C	0.0105045	0.286251	0.346181
0	H	0.351072	0.273002	0.197653
0	H	0.725241	0.0890367	0.533591
0	H	0.914338	0.651475	0.863372
0	H	0.63957	0.733386	0.698453
0	H	0.267918	0.921856	0.0306218
0	H	0.0802775	0.357825	0.365504
0	H	0.282176	0.264742	0.125741
0	H	0.732888	0.0279331	0.461342
0	H	0.9762	0.722156	0.792251
0	H	0.706674	0.740116	0.626074
0	H	0.259071	0.983993	0.959111
0	H	0.0194729	0.287705	0.294052
0	H	0.210648	0.199703	0.195671
0	H	0.795187	0.0160578	0.531389
0	H	0.979936	0.793263	0.862327
0	H	0.779967	0.806462	0.69527
0	H	0.196684	0.993607	0.0297147
0	H	0.0145418	0.216089	0.364134
0	C	0.479897	0.473912	0.272873
0	C	0.527977	0.0256948	0.609508
0	C	0.981768	0.519911	0.940863
0	C	0.511742	0.534458	0.774643
0	C	0.466425	0.986375	0.106846
0	C	0.011743	0.489509	0.44181
0	H	0.549541	0.489082	0.301894
0	H	0.514693	0.0815301	0.639373
0	H	0.928565	0.450334	0.970317
0	H	0.442643	0.519554	0.804143
0	H	0.480222	0.930375	0.136184
0	H	0.0661028	0.559085	0.470896
0	H	0.484577	0.551997	0.264229
0	H	0.4498	0.955814	0.600079
0	H	0.0536446	0.513534	0.931848
0	H	0.506752	0.456213	0.765994
0	H	0.544293	0.0571311	0.0980544
0	H	0.940201	0.496665	0.43327
0	H	0.487856	0.442201	0.226791
0	H	0.560638	0.0659583	0.563875
0	H	0.941975	0.51201	0.895011
0	H	0.502989	0.565848	0.72864
0	H	0.434687	0.94722	0.0608144
0	H	0.0505765	0.496556	0.395724
0	C	0.652946	0.444274	0.452387
0	C	0.555458	0.222337	0.788249
0	C	0.779433	0.347245	0.117773
0	C	0.341629	0.56792	0.954435
0	C	0.43826	0.787397	0.286296
0	C	0.212188	0.663927	0.61782
0	H	0.66481	0.417891	0.405301
0	H	0.581549	0.260095	0.741171
0	H	0.74103	0.336735	0.0710336
0	H	0.329037	0.594445	0.907577
0	H	0.41425	0.751861	0.238538
0	H	0.250572	0.673743	0.571135
0	H	0.717022	0.450068	0.483631
0	H	0.548808	0.281026	0.819373
0	H	0.722688	0.282386	0.148884
0	H	0.278063	0.562087	0.986151
0	H	0.443301	0.727155	0.316816
0	H	0.268918	0.729296	0.648649
0	H	0.666516	0.5267	0.445752
0	H	0.474185	0.154963	0.781503
0	H	0.846913	0.332346	0.110137
0	H	0.32788	0.485488	0.947494
0	H	0.519954	0.854795	0.281186
0	H	0.144667	0.678638	0.609832
0	N	0.389695	0.17024	0.63822
0	N	0.830474	0.228487	0.973609
0	N	0.769768	0.614379	0.305193
0	N	0.606931	0.842121	0.13907
0	N	0.159717	0.777966	0.47054
0	N	0.222797	0.400913	0.807405
0	O	0.377595	0.219239	0.692585
0	O	0.783049	0.168175	0.0280197
0	O	0.83016	0.625902	0.359427
0	O	0.619259	0.792581	0.193109
0	O	0.206098	0.837942	0.525258
0	O	0.1632	0.390888	0.861742
0	H	0.354415	0.159038	0.727082
0	H	0.843015	0.204226	0.0623266
0	H	0.79436	0.650846	0.393872
0	H	0.641329	0.851905	0.228075
0	H	0.145495	0.801715	0.559115
0	H	0.198344	0.36503	0.896147
0	O	0.973191	0.275412	0.099982
0	O	0.721327	0.710125	0.432281
0	O	0.296303	0.0278125	0.766522
0	O	0.015867	0.731686	0.598114
0	O	0.270063	0.303473	0.933353
0	O	0.697946	0.982695	0.267471
0	O	0.0604877	0.365126	0.0119146
0	O	0.632511	0.711322	0.344303
0	O	0.296636	0.935757	0.679585
0	O	0.926539	0.639629	0.511154
0	O	0.358293	0.303581	0.844788
0	O	0.698028	0.0746764	0.18037
0	H	0.987036	0.337687	0.991668
0	H	0.661018	0.665415	0.323655
0	H	0.343248	0.00908108	0.658978
0	H	0.999348	0.667077	0.490248
0	H	0.330265	0.350531	0.824821
0	H	0.651673	0.00127809	0.159713
