#******************************************
#
# CIF file created by Zeo++
# Zeo++ is an open source package to
# analyze microporous materials
#
#*******************************************

_cell_length_a		16.5767(0)
_cell_length_b		16.8684(0)
_cell_length_c		5.70393(0)
_cell_angle_alpha		90(0)
_cell_angle_beta		90(0)
_cell_angle_gamma		90(0)

_symmetry_space_group_name_H-M		'P1'
_symmetry_Int_Tables_number		1
_symmetry_cell_setting		Monoclinic

loop_
_symmetry_equiv_pos_as_xyz
'+x,+y,+z'

loop_
_atom_site_label
_atom_site_type_symbol
_atom_site_fract_x
_atom_site_fract_y
_atom_site_fract_z
0	O	0.799366	0.163365	0.0948511
0	O	0.279371	0.896582	0.0945212
0	O	0.905404	0.790871	0.0978906
0	O	0.173283	0.269025	0.0980695
0	O	0.293698	0.664992	0.598169
0	O	0.784535	0.394951	0.598217
0	O	0.403717	0.288561	0.596785
0	O	0.674808	0.771439	0.596588
0	O	0.765233	0.885008	0.248079
0	O	0.313353	0.174821	0.248388
0	O	0.184647	0.759508	0.24463
0	O	0.893849	0.300469	0.244625
0	O	0.260809	0.384448	0.756459
0	O	0.817757	0.675434	0.756492
0	O	0.686973	0.253699	0.757444
0	O	0.391488	0.806149	0.757665
0	O	0.772092	0.0777177	0.812419
0	O	0.306597	0.982404	0.812488
0	O	0.989265	0.761488	0.809854
0	O	0.0891186	0.297975	0.810438
0	O	0.269264	0.576886	0.320466
0	O	0.808982	0.482975	0.320402
0	O	0.49254	0.262723	0.318154
0	O	0.585775	0.797194	0.318407
0	N	0.772859	0.0143629	0.372312
0	N	0.305655	0.0454205	0.372197
0	N	0.0537082	0.761322	0.372803
0	N	0.0247116	0.2984	0.373276
0	N	0.270545	0.513989	0.879627
0	N	0.807892	0.545918	0.879676
0	N	0.55517	0.263744	0.878618
0	N	0.523316	0.795952	0.878622
0	N	0.822874	0.834235	0.712155
0	N	0.255884	0.225738	0.712008
0	N	0.235272	0.813997	0.711155
0	N	0.843083	0.245854	0.711041
0	N	0.319446	0.331241	0.211366
0	N	0.759032	0.728832	0.210908
0	N	0.741136	0.311386	0.20961
0	N	0.337296	0.748525	0.209564
0	C	0.71837	0.046494	0.189785
0	C	0.360335	0.013392	0.189959
0	C	0.0226814	0.708437	0.186255
0	C	0.0557958	0.351231	0.186704
0	C	0.215817	0.546216	0.697881
0	C	0.862546	0.513664	0.697794
0	C	0.522805	0.209905	0.696458
0	C	0.555715	0.849946	0.696886
0	C	0.787758	0.934185	0.392743
0	C	0.290776	0.12561	0.39284
0	C	0.134417	0.779455	0.391797
0	C	0.943977	0.280406	0.391939
0	C	0.284271	0.433521	0.900115
0	C	0.794257	0.626401	0.900194
0	C	0.636927	0.277022	0.900557
0	C	0.441543	0.782771	0.900674
0	C	0.76734	0.099991	0.0200976
0	C	0.311329	0.96003	0.0200354
0	C	0.968333	0.757467	0.0191453
0	C	0.1101	0.302055	0.0196386
0	C	0.263981	0.60008	0.52721
0	C	0.814285	0.459847	0.527045
0	C	0.469091	0.257947	0.524971
0	C	0.609383	0.802004	0.525033
0	C	0.842367	0.914111	0.605442
0	C	0.23621	0.14582	0.605666
0	C	0.15404	0.833338	0.604474
0	C	0.924276	0.226487	0.60432
0	C	0.338586	0.412255	0.112159
0	C	0.74002	0.647691	0.11237
0	C	0.658447	0.330318	0.112536
0	C	0.419971	0.729494	0.112624
0	C	0.650328	0.094057	0.301882
0	C	0.428163	0.965528	0.302044
0	C	0.974694	0.640116	0.292023
0	C	0.103753	0.419574	0.292544
0	C	0.147266	0.593603	0.807884
0	C	0.931049	0.466127	0.807608
0	C	0.473811	0.143131	0.806715
0	C	0.604794	0.916615	0.807389
0	C	0.929287	0.914233	0.519974
0	C	0.149239	0.145734	0.520482
0	C	0.154359	0.918767	0.519019
0	C	0.923956	0.141128	0.518402
0	C	0.42577	0.41355	0.0289069
0	C	0.652782	0.646149	0.0295877
0	C	0.657079	0.416068	0.0299423
0	C	0.421294	0.643759	0.029966
0	H	0.693054	0.995914	0.0835346
0	H	0.385902	0.0638116	0.0837329
0	H	0.0750482	0.684987	0.0804113
0	H	0.00340324	0.374688	0.080938
0	H	0.190699	0.495421	0.591604
0	H	0.887756	0.564466	0.591678
0	H	0.574632	0.184672	0.591894
0	H	0.503905	0.875273	0.592544
0	H	0.833128	0.960151	0.748388
0	H	0.245488	0.0998588	0.748783
0	H	0.107073	0.824342	0.74694
0	H	0.971239	0.235368	0.746902
0	H	0.328593	0.456841	0.25855
0	H	0.750181	0.603206	0.258964
0	H	0.613224	0.32035	0.259208
0	H	0.465126	0.739433	0.259497
0	H	0.781178	0.0506097	0.520079
0	H	0.297353	0.00920714	0.520179
0	H	0.0161629	0.768397	0.519084
0	H	0.062195	0.290994	0.519598
0	H	0.279765	0.550061	0.0273354
0	H	0.798547	0.50982	0.0275298
0	H	0.518065	0.273193	0.0251141
0	H	0.560323	0.786538	0.0253965
0	H	0.850748	0.78801	0.622656
0	H	0.228233	0.271974	0.622137
0	H	0.282294	0.839501	0.617315
0	H	0.796047	0.220003	0.617921
0	H	0.343829	0.286017	0.11049
0	H	0.734678	0.773888	0.109426
0	H	0.786494	0.33525	0.10583
0	H	0.291895	0.724732	0.105763
0	H	0.848447	0.829868	0.887407
0	H	0.230197	0.230335	0.887011
0	H	0.240943	0.84093	0.884184
0	H	0.837641	0.219273	0.884528
0	H	0.348239	0.323808	0.381691
0	H	0.730152	0.736378	0.381132
0	H	0.74955	0.340095	0.378811
0	H	0.3288	0.71996	0.378776
0	H	0.760529	0.821782	0.717238
0	H	0.318281	0.238019	0.717433
0	H	0.246893	0.752678	0.721277
0	H	0.831311	0.307178	0.720206
0	H	0.257053	0.319936	0.22504
0	H	0.821391	0.740186	0.2249
0	H	0.752573	0.250016	0.223583
0	H	0.325913	0.809875	0.223132
0	H	0.615847	0.127833	0.171502
0	H	0.462465	0.931561	0.171642
0	H	0.94059	0.607356	0.158534
0	H	0.13782	0.452391	0.159095
0	H	0.111908	0.625566	0.675252
0	H	0.966456	0.434356	0.674722
0	H	0.441208	0.108433	0.674343
0	H	0.637537	0.95128	0.675187
0	H	0.607826	0.0551821	0.394298
0	H	0.470914	0.00415724	0.394401
0	H	0.0145485	0.597496	0.379996
0	H	0.0638603	0.462127	0.380719
0	H	0.105542	0.554875	0.903844
0	H	0.972706	0.504735	0.904206
0	H	0.512844	0.101984	0.903583
0	H	0.565843	0.957856	0.904184
0	H	0.970835	0.890176	0.65336
0	H	0.10766	0.169663	0.654008
0	H	0.178978	0.959521	0.652629
0	H	0.89949	0.10033	0.65204
0	H	0.467414	0.391455	0.165054
0	H	0.611168	0.66828	0.165726
0	H	0.679666	0.456808	0.166478
0	H	0.398676	0.603029	0.166492
0	H	0.949615	0.974104	0.47422
0	H	0.12897	0.0858843	0.474563
0	H	0.0937	0.939158	0.472502
0	H	0.984587	0.120801	0.471349
0	H	0.444904	0.473497	0.979815
0	H	0.633753	0.586091	0.981273
0	H	0.596109	0.435032	0.981351
0	H	0.482267	0.6248	0.981177
0	H	0.936457	0.876953	0.36046
0	H	0.142002	0.183056	0.361084
0	H	0.192573	0.925657	0.359945
0	H	0.885633	0.134312	0.35951
0	H	0.434213	0.375391	0.871976
0	H	0.644157	0.684123	0.872368
0	H	0.695931	0.42462	0.873171
0	H	0.382418	0.635246	0.8732
0	H	0.67332	0.13687	0.432373
0	H	0.404799	0.922866	0.432328
0	H	0.930957	0.660756	0.424938
0	H	0.147484	0.398862	0.425361
0	H	0.169683	0.6381	0.934225
0	H	0.908611	0.42142	0.93326
0	H	0.42878	0.165655	0.933004
0	H	0.649705	0.893912	0.933719
