#******************************************
#
# CIF file created by Zeo++
# Zeo++ is an open source package to
# analyze microporous materials
#
#*******************************************

_cell_length_a		13.8054(0)
_cell_length_b		13.7017(0)
_cell_length_c		0.853463(0)
_cell_angle_alpha		90(0)
_cell_angle_beta		90(0)
_cell_angle_gamma		119.249(0)

_symmetry_space_group_name_H-M		'P1'
_symmetry_Int_Tables_number		1
_symmetry_cell_setting		Monoclinic

loop_
_symmetry_equiv_pos_as_xyz
'+x,+y,+z'

loop_
_atom_site_label
_atom_site_type_symbol
_atom_site_fract_x
_atom_site_fract_y
_atom_site_fract_z
0	C	0.047481	0.521644	0.604893
0	C	0.452797	0.519114	0.300943
0	C	0.448735	0.931292	0.630769
0	C	0.103998	0.635592	0.0403474
0	C	0.343241	0.464404	0.638272
0	C	0.507584	0.870087	0.947501
0	C	0.00537617	0.640678	0.735203
0	C	0.338736	0.360229	0.333933
0	C	0.611069	0.971693	0.916551
0	C	0.895807	0.539349	0.633878
0	C	0.441298	0.366591	0.244395
0	C	0.616245	0.0793131	0.916879
0	C	0.796702	0.543726	0.318199
0	C	0.428315	0.26018	0.564267
0	C	0.724464	0.175227	0.144925
0	C	0.864199	0.682516	0.147377
0	C	0.309984	0.182574	0.616748
0	C	0.804248	0.116521	0.307565
0	C	0.043004	0.341897	0.498781
0	C	0.631903	0.692472	0.193764
0	C	0.284717	0.938398	0.769189
0	O	0.0763732	0.449817	0.951195
0	O	0.525768	0.63351	0.321164
0	O	0.335318	0.877811	0.616809
0	O	0.208974	0.671308	0.195939
0	O	0.304517	0.526329	0.677875
0	O	0.437952	0.760442	0.981042
0	O	0.974311	0.727508	0.908928
0	O	0.251786	0.252245	0.538038
0	O	0.730944	0.00629979	0.978988
0	O	0.931485	0.46408	0.690715
0	O	0.517649	0.475812	0.310314
0	O	0.509534	0.0451584	0.60301
0	O	0.72296	0.436442	0.389107
0	O	0.525301	0.277216	0.53372
0	O	0.691764	0.241393	0.9198
0	H	0.101294	0.496542	0.518348
0	H	0.482366	0.571646	0.948321
0	H	0.401848	0.922763	0.34447
0	H	0.15157	0.714244	0.288583
0	H	0.271426	0.436265	0.520086
0	H	0.54009	0.838708	0.944797
0	H	0.0392663	0.697986	0.892485
0	H	0.284119	0.340584	0.519104
0	H	0.630865	0.920431	0.860984
0	H	0.86711	0.466795	0.828704
0	H	0.50417	0.400576	0.427662
0	H	0.572456	0.114494	0.800431
0	H	0.735806	0.542727	0.27852
0	H	0.443379	0.201094	0.663171
0	H	0.777547	0.256106	0.818914
0	H	0.823239	0.720115	0.924917
0	H	0.265185	0.114485	0.487862
0	H	0.869287	0.15397	0.101257
0	H	0.846067	0.634893	0.577625
0	H	0.315554	0.208523	0.132086
0	H	0.7769	0.13049	0.654173
0	H	0.085434	0.314621	0.207549
0	H	0.655743	0.761445	0.963766
0	H	0.189756	0.862465	0.785285
0	H	0.109038	0.359839	0.686587
0	H	0.62254	0.74542	0.452573
0	H	0.236624	0.901139	0.276106
0	H	0.947785	0.295218	0.370928
0	H	0.6778	0.655834	0.114085
0	H	0.327467	0.0303206	0.723887
0	H	0.267913	0.732543	0.662672
0	H	0.247233	0.538634	0.232749
0	H	0.449223	0.707238	0.755987
0	H	0.652993	0.408704	0.0432007
0	H	0.555543	0.240038	0.66106
0	H	0.703373	0.309292	0.35297
