#******************************************
#
# CIF file created by Zeo++
# Zeo++ is an open source package to
# analyze microporous materials
#
#*******************************************

_cell_length_a		21.729(0)
_cell_length_b		21.6486(0)
_cell_length_c		10.1173(0)
_cell_angle_alpha		90(0)
_cell_angle_beta		90(0)
_cell_angle_gamma		120.262(0)

_symmetry_space_group_name_H-M		'P1'
_symmetry_Int_Tables_number		1
_symmetry_cell_setting		Monoclinic

loop_
_symmetry_equiv_pos_as_xyz
'+x,+y,+z'

loop_
_atom_site_label
_atom_site_type_symbol
_atom_site_fract_x
_atom_site_fract_y
_atom_site_fract_z
0	C	0.00581521	0.597334	0.958578
0	C	0.430743	0.42436	0.623387
0	C	0.604871	0.0209415	0.290539
0	C	0.0204017	0.431217	0.459093
0	C	0.596955	0.6051	0.12182
0	C	0.422749	0.00723694	0.791903
0	C	0.989986	0.65001	0.996448
0	C	0.378999	0.355614	0.663825
0	C	0.672488	0.035302	0.33085
0	C	0.0371053	0.379207	0.497236
0	C	0.648542	0.673816	0.162643
0	C	0.355153	0.993089	0.831905
0	H	0.00634342	0.675841	0.093005
0	H	0.354096	0.346655	0.761081
0	H	0.680346	0.018173	0.427786
0	H	0.0216079	0.353894	0.594343
0	H	0.672847	0.682714	0.260476
0	H	0.347404	0.0109456	0.928182
0	C	0.951389	0.668939	0.911496
0	C	0.359802	0.297091	0.580581
0	C	0.731297	0.0733627	0.247846
0	C	0.0754761	0.360252	0.41173
0	C	0.668283	0.73234	0.0790893
0	C	0.296213	0.954274	0.749569
0	H	0.93871	0.709501	0.94178
0	H	0.319842	0.243703	0.612725
0	H	0.783791	0.0847801	0.280108
0	H	0.0887316	0.320108	0.442083
0	H	0.708112	0.785711	0.111615
0	H	0.243744	0.943026	0.781668
0	C	0.928407	0.635267	0.789041
0	C	0.392406	0.307027	0.457391
0	C	0.722788	0.0973422	0.124882
0	C	0.0974207	0.393316	0.288568
0	C	0.636344	0.722419	0.955246
0	C	0.304534	0.929322	0.627478
0	H	0.897899	0.649719	0.722401
0	H	0.377691	0.261318	0.392021
0	H	0.768661	0.127114	0.0593928
0	H	0.127813	0.378894	0.221579
0	H	0.651457	0.768118	0.889622
0	H	0.258559	0.899015	0.562447
0	C	0.944532	0.582909	0.75084
0	C	0.444107	0.375694	0.416871
0	C	0.655298	0.0831642	0.0846258
0	C	0.0803857	0.444995	0.250071
0	C	0.584735	0.653778	0.914349
0	C	0.371996	0.943297	0.58752
0	H	0.92703	0.557185	0.654079
0	H	0.469296	0.383235	0.319811
0	H	0.648872	0.101982	0.987851
0	H	0.096993	0.470152	0.152685
0	H	0.560115	0.646275	0.816747
0	H	0.378293	0.923655	0.491478
0	C	0.9832	0.563979	0.834937
0	C	0.463184	0.434306	0.499157
0	C	0.596383	0.0449212	0.166682
0	C	0.0418696	0.463874	0.334638
0	C	0.565178	0.595174	0.996915
0	C	0.431041	0.982244	0.66898
0	H	0.995859	0.523144	0.804451
0	H	0.503448	0.487937	0.466797
0	H	0.543686	0.0336989	0.134296
0	H	0.0284525	0.504143	0.303998
0	H	0.525045	0.541563	0.964227
0	H	0.483675	0.993227	0.636741
0	C	0.0470096	0.574886	0.0458184
0	C	0.453107	0.489086	0.70848
0	C	0.539904	0.979711	0.37533
0	C	0.979437	0.453778	0.546704
0	C	0.574161	0.540392	0.207194
0	C	0.487818	0.0492376	0.876111
0	H	0.0256323	0.516213	0.0459011
0	H	0.511551	0.526913	0.707593
0	H	0.503558	0.00182874	0.373985
0	H	0.00100325	0.512481	0.546859
0	H	0.515656	0.502983	0.206475
0	H	0.524659	0.0276911	0.874654
0	H	0.104771	0.602573	0.0197823
0	H	0.425327	0.518752	0.681056
0	H	0.509135	0.92194	0.347924
0	H	0.921667	0.42631	0.520822
0	H	0.601611	0.510387	0.180016
0	H	0.51801	0.106951	0.848196
0	O	0.0387158	0.588281	0.184097
0	O	0.440172	0.468409	0.847347
0	O	0.559786	0.986793	0.514562
0	O	0.987804	0.440295	0.684873
0	O	0.587223	0.56112	0.346053
0	O	0.468225	0.0422523	0.0154749
0	C	0.0904304	0.653876	0.235499
0	C	0.375154	0.454783	0.899356
0	C	0.573342	0.934956	0.565294
0	C	0.936123	0.374661	0.736181
0	C	0.652144	0.574361	0.397833
0	C	0.454038	0.0936142	0.06647
0	O	0.148283	0.68973	0.181328
0	O	0.339345	0.476628	0.845274
0	O	0.551393	0.877227	0.510222
0	O	0.878378	0.338668	0.681773
0	O	0.687769	0.552428	0.34328
0	O	0.475758	0.151445	0.0119326
0	N	0.0635637	0.666802	0.348314
0	N	0.362773	0.415584	0.0132054
0	N	0.612916	0.961533	0.678688
0	N	0.962789	0.361933	0.849516
0	N	0.664619	0.613204	0.51218
0	N	0.41421	0.0664936	0.179443
0	H	0.0110753	0.629535	0.376374
0	H	0.399296	0.399493	0.0401123
0	H	0.628658	0.0141267	0.707384
0	H	0.0153354	0.399059	0.877502
0	H	0.628291	0.629502	0.539384
0	H	0.398628	0.0138507	0.207529
0	C	0.10664	0.727257	0.441028
0	C	0.302818	0.39829	0.106368
0	C	0.629227	0.917841	0.771176
0	C	0.91966	0.301284	0.94178
0	C	0.724883	0.630344	0.604471
0	C	0.397351	0.109506	0.27265
0	C	0.0540128	0.728595	0.542158
0	C	0.302085	0.345038	0.209026
0	C	0.682242	0.969923	0.874853
0	C	0.972048	0.300046	0.0436048
0	C	0.725606	0.683032	0.708372
0	C	0.343757	0.0566504	0.374791
0	H	0.00908103	0.728732	0.489159
0	H	0.30235	0.299664	0.157423
0	H	0.72777	0.0160549	0.824202
0	H	0.0183841	0.302353	0.991459
0	H	0.726054	0.729004	0.657806
0	H	0.298098	0.0113477	0.322685
0	H	0.0287498	0.677855	0.599633
0	H	0.352688	0.37165	0.266326
0	H	0.655856	0.993837	0.932736
0	H	0.995174	0.349752	0.103916
0	H	0.674673	0.656294	0.76468
0	H	0.369361	0.0315106	0.431405
0	C	0.0888742	0.791757	0.636937
0	C	0.239268	0.316575	0.304053
0	C	0.709976	0.934606	0.969002
0	C	0.93776	0.235264	0.13476
0	C	0.787801	0.710236	0.804626
0	C	0.316406	0.0916119	0.470628
0	H	0.133711	0.793434	0.69027
0	H	0.236788	0.360053	0.355041
0	H	0.666376	0.889069	0.0211321
0	H	0.890313	0.229895	0.184233
0	H	0.788229	0.666157	0.857526
0	H	0.360203	0.136601	0.52349
0	H	0.0502108	0.787723	0.711322
0	H	0.244153	0.283219	0.380359
0	H	0.744411	0.972975	0.0444563
0	H	0.975395	0.240402	0.212373
0	H	0.783895	0.744919	0.879302
0	H	0.281835	0.0528476	0.54544
0	H	0.109472	0.843096	0.58577
0	H	0.188129	0.284171	0.253585
0	H	0.7409	0.914614	0.917623
0	H	0.921211	0.185195	0.0814996
0	H	0.839435	0.740861	0.754838
0	H	0.28577	0.112306	0.420461
0	C	0.164798	0.716921	0.504055
0	C	0.31283	0.467282	0.16797
0	C	0.560053	0.858525	0.831843
0	C	0.860997	0.31097	0.00439184
0	C	0.715246	0.561178	0.664573
0	C	0.466289	0.16842	0.334738
0	H	0.1421	0.667636	0.562531
0	H	0.361623	0.494288	0.22723
0	H	0.532878	0.880363	0.890072
0	H	0.883125	0.360104	0.063139
0	H	0.666469	0.533712	0.723827
0	H	0.492995	0.146144	0.393153
0	H	0.198836	0.761972	0.569599
0	H	0.267592	0.456135	0.232521
0	H	0.570711	0.824321	0.897192
0	H	0.827098	0.265652	0.0695838
0	H	0.760557	0.572223	0.728832
0	H	0.455551	0.202545	0.400132
0	H	0.200125	0.714622	0.428719
0	H	0.315481	0.504858	0.0918626
0	H	0.523033	0.823292	0.755249
0	H	0.825631	0.313001	0.928815
0	H	0.712715	0.524023	0.587671
0	H	0.503744	0.203831	0.258827
0	C	0.14371	0.800409	0.366287
0	C	0.229621	0.361188	0.0326921
0	C	0.665698	0.881578	0.696557
0	C	0.882977	0.228301	0.866558
0	C	0.7979	0.668024	0.530222
0	C	0.361089	0.146213	0.198682
0	O	0.202053	0.849701	0.399978
0	O	0.180313	0.36951	0.0674599
0	O	0.655833	0.822786	0.729079
0	O	0.824368	0.179058	0.899165
0	O	0.847751	0.660611	0.565098
0	O	0.37081	0.204806	0.232218
0	N	0.108306	0.806752	0.25731
0	N	0.223243	0.319566	0.923137
0	N	0.708465	0.917784	0.588789
0	N	0.918876	0.221989	0.758375
0	N	0.80347	0.708947	0.420059
0	N	0.318521	0.110431	0.0904355
0	H	0.0550976	0.769071	0.242356
0	H	0.260731	0.304106	0.90786
0	H	0.724755	0.971273	0.574773
0	H	0.972069	0.25978	0.743671
0	H	0.765729	0.724038	0.404861
0	H	0.302282	0.0569606	0.075963
0	C	0.139378	0.872173	0.173311
0	C	0.157573	0.284285	0.840455
0	C	0.743595	0.887291	0.506349
0	C	0.88826	0.15641	0.674859
0	C	0.868685	0.743992	0.336205
0	C	0.283536	0.141148	0.0081826
0	C	0.0920358	0.853369	0.0483062
0	C	0.175594	0.255205	0.71536
0	C	0.774187	0.935536	0.382684
0	C	0.936064	0.175039	0.550601
0	C	0.849643	0.771304	0.20992
0	C	0.25339	0.0933312	0.883869
0	H	0.0982654	0.814134	0.987486
0	H	0.214513	0.300728	0.653778
0	H	0.729662	0.931031	0.321418
0	H	0.930066	0.214205	0.489095
0	H	0.809224	0.724989	0.151828
0	H	0.298185	0.0986077	0.822461
0	H	0.0346252	0.824795	0.0784038
0	H	0.203997	0.226277	0.745387
0	H	0.804662	0.992885	0.41463
0	H	0.993362	0.203671	0.581712
0	H	0.822776	0.801847	0.238895
0	H	0.223345	0.0358222	0.914931
0	C	0.107647	0.918166	0.964808
0	C	0.110526	0.205358	0.633176
0	C	0.822383	0.918947	0.299184
0	C	0.920933	0.110151	0.467861
0	C	0.913795	0.818412	0.123289
0	C	0.204789	0.109624	0.801001
0	H	0.0853867	0.948886	0.00915891
0	H	0.0807219	0.151939	0.677319
0	H	0.875894	0.942253	0.341826
0	H	0.942671	0.0792984	0.513645
0	H	0.945185	0.872668	0.163311
0	H	0.151443	0.0863064	0.844394
0	H	0.0847204	0.901955	0.865582
0	H	0.126023	0.19917	0.533093
0	H	0.828038	0.940423	0.198923
0	H	0.944701	0.126326	0.369267
0	H	0.896981	0.822909	0.0232674
0	H	0.198799	0.0880145	0.700783
0	H	0.165598	0.955352	0.952741
0	H	0.0729096	0.225473	0.623253
0	H	0.801433	0.860768	0.289668
0	H	0.863079	0.0731119	0.454311
0	H	0.950429	0.797139	0.11371
0	H	0.225621	0.16779	0.791253
0	C	0.143784	0.934677	0.252247
0	C	0.0957298	0.226117	0.920873
0	C	0.800415	0.882432	0.587901
0	C	0.883571	0.0940534	0.754829
0	C	0.93048	0.803614	0.414372
0	C	0.226462	0.145684	0.0894572
0	H	0.0908181	0.926419	0.273885
0	H	0.103974	0.181308	0.942473
0	H	0.844913	0.935498	0.612392
0	H	0.93647	0.102661	0.778303
0	H	0.92138	0.848031	0.434395
0	H	0.182003	0.0925097	0.113404
0	H	0.174206	0.985401	0.198411
0	H	0.0448812	0.205511	0.868104
0	H	0.821389	0.852763	0.534433
0	H	0.853798	0.0433006	0.700806
0	H	0.981076	0.824472	0.360575
0	H	0.205473	0.175379	0.036104
0	H	0.171596	0.941322	0.346903
0	H	0.0897696	0.247788	0.0155689
0	H	0.777666	0.853421	0.681141
0	H	0.854869	0.0871109	0.848491
0	H	0.937473	0.783328	0.50983
0	H	0.248953	0.174521	0.182958
0	C	0.21668	0.893887	0.127961
0	C	0.135349	0.339542	0.795136
0	C	0.68799	0.809928	0.458765
0	C	0.811045	0.134383	0.628176
0	C	0.891522	0.688851	0.292888
0	C	0.339039	0.218686	0.961187
0	O	0.259659	0.956115	0.09724
0	O	0.0731335	0.319496	0.765203
0	O	0.70725	0.767158	0.42866
0	O	0.768641	0.0720295	0.597314
0	O	0.953933	0.709426	0.263703
0	O	0.319597	0.261318	0.931155
0	N	0.234657	0.841248	0.116976
0	N	0.187365	0.410807	0.783582
0	N	0.61759	0.792049	0.445202
0	N	0.792702	0.186704	0.616287
0	N	0.839778	0.617496	0.282118
0	N	0.409496	0.236727	0.948015
0	H	0.200514	0.788885	0.147861
0	H	0.23973	0.429616	0.813154
0	H	0.599679	0.826284	0.475245
0	H	0.826494	0.239052	0.647261
0	H	0.787368	0.598617	0.311455
0	H	0.427332	0.202391	0.977858
0	C	0.307246	0.858494	0.0798792
0	C	0.169287	0.465788	0.747823
0	C	0.561586	0.719021	0.409335
0	C	0.719948	0.168992	0.579565
0	C	0.857891	0.562539	0.246476
0	C	0.465586	0.30964	0.911668
0	H	0.334388	0.910579	0.0225873
0	H	0.116931	0.440138	0.691934
0	H	0.585889	0.69152	0.352274
0	H	0.692783	0.11664	0.523121
0	H	0.910336	0.588146	0.1909
0	H	0.441481	0.337075	0.853843
0	C	0.305034	0.797255	0.995464
0	C	0.229209	0.525745	0.662304
0	C	0.502342	0.720626	0.325311
0	C	0.721418	0.229672	0.494455
0	C	0.798107	0.502587	0.160581
0	C	0.524771	0.307468	0.828388
0	H	0.280692	0.747567	0.0576703
0	H	0.279086	0.552365	0.723391
0	H	0.47711	0.74485	0.387401
0	H	0.745191	0.279533	0.556174
0	H	0.748195	0.475599	0.22153
0	H	0.549481	0.282949	0.891155
0	C	0.259255	0.783067	0.871962
0	C	0.243438	0.494676	0.538099
0	C	0.533721	0.766214	0.201189
0	C	0.767254	0.244081	0.370976
0	C	0.783757	0.533879	0.0368143
0	C	0.493368	0.261724	0.704432
0	H	0.204002	0.766793	0.896939
0	H	0.259292	0.45524	0.562015
0	H	0.573289	0.821749	0.225397
0	H	0.822802	0.26157	0.395845
0	H	0.766098	0.571835	0.0614877
0	H	0.45308	0.206455	0.728825
0	H	0.257794	0.740076	0.812422
0	H	0.28654	0.536801	0.479368
0	H	0.492054	0.76744	0.142228
0	H	0.767562	0.286199	0.310413
0	H	0.741971	0.491709	0.97602
0	H	0.534842	0.259517	0.646558
0	H	0.279921	0.830604	0.80859
0	H	0.196231	0.468156	0.474209
0	H	0.559964	0.745257	0.137539
0	H	0.747322	0.196262	0.308563
0	H	0.83148	0.562208	0.974635
0	H	0.467957	0.283106	0.639649
0	C	0.381173	0.817339	0.958042
0	C	0.20748	0.580758	0.625604
0	C	0.445975	0.643949	0.288499
0	C	0.645023	0.208468	0.456488
0	C	0.820141	0.447871	0.123299
0	C	0.581702	0.383935	0.791646
0	H	0.381199	0.776143	0.895097
0	H	0.247152	0.622066	0.5603
0	H	0.40438	0.643358	0.226253
0	H	0.64441	0.249253	0.39315
0	H	0.78038	0.406333	0.0584772
0	H	0.622964	0.384069	0.729074
0	H	0.413332	0.822821	0.0455207
0	H	0.202753	0.60794	0.713115
0	H	0.419659	0.611593	0.376239
0	H	0.612427	0.202429	0.543568
0	H	0.825414	0.42089	0.210588
0	H	0.608347	0.41602	0.879504
0	H	0.408273	0.867747	0.902481
0	H	0.156418	0.555993	0.572616
0	H	0.469131	0.617165	0.232348
0	H	0.618709	0.158011	0.400923
0	H	0.871006	0.472867	0.0696294
0	H	0.558992	0.41128	0.735946
0	C	0.350156	0.870931	0.208275
0	C	0.157334	0.496159	0.876906
0	C	0.53134	0.676432	0.538497
0	C	0.677151	0.156915	0.707998
0	C	0.869594	0.532142	0.375768
0	C	0.495713	0.352481	0.0406551
0	O	0.387061	0.92753	0.264965
0	O	0.100966	0.476065	0.933753
0	O	0.551011	0.639761	0.595009
0	O	0.640064	0.100373	0.764758
0	O	0.925783	0.552326	0.433347
0	O	0.475812	0.389045	0.0968747
0	O	0.343452	0.808687	0.254591
0	O	0.219474	0.551973	0.923041
0	O	0.476218	0.683347	0.584822
0	O	0.684124	0.21931	0.754
0	O	0.807349	0.476272	0.421426
0	O	0.55087	0.345775	0.0874199
0	C	0.380335	0.811645	0.376638
0	C	0.217309	0.585836	0.0459262
0	C	0.442594	0.648028	0.708382
0	C	0.647376	0.216697	0.876029
0	C	0.809234	0.442485	0.544605
0	C	0.584422	0.381322	0.21089
0	H	0.43841	0.842797	0.360525
0	H	0.181076	0.607327	0.0356293
0	H	0.417789	0.589596	0.69734
0	H	0.589273	0.184786	0.86066
0	H	0.844728	0.420108	0.534324
0	H	0.610874	0.439791	0.198175
0	H	0.361909	0.755187	0.395782
0	H	0.272803	0.628652	0.0573324
0	H	0.402597	0.664053	0.722458
0	H	0.665094	0.273139	0.893655
0	H	0.753512	0.400377	0.556697
0	H	0.623004	0.363658	0.227375
0	H	0.364485	0.835799	0.455253
0	H	0.200152	0.54684	0.126633
0	H	0.482332	0.667873	0.787766
0	H	0.664009	0.193608	0.955242
0	H	0.827261	0.481802	0.624904
0	H	0.544307	0.363154	0.289603
