#******************************************
#
# CIF file created by Zeo++
# Zeo++ is an open source package to
# analyze microporous materials
#
#*******************************************

_cell_length_a		14.0921(0)
_cell_length_b		17.0101(0)
_cell_length_c		16.1644(0)
_cell_angle_alpha		90(0)
_cell_angle_beta		90(0)
_cell_angle_gamma		90(0)

_symmetry_space_group_name_H-M		'P1'
_symmetry_Int_Tables_number		1
_symmetry_cell_setting		Monoclinic

loop_
_symmetry_equiv_pos_as_xyz
'+x,+y,+z'

loop_
_atom_site_label
_atom_site_type_symbol
_atom_site_fract_x
_atom_site_fract_y
_atom_site_fract_z
0	N	0.242684	0.0111923	0.337024
0	N	0.747794	0.00472958	0.336469
0	N	0.748553	0.0113331	0.713397
0	N	0.242584	0.00465295	0.71378
0	N	0.738051	0.515957	0.845801
0	N	0.252533	0.499975	0.845631
0	N	0.252771	0.516037	0.204552
0	N	0.738283	0.49986	0.204745
0	C	0.0600644	0.911352	0.328215
0	C	0.930421	0.104624	0.328269
0	C	0.930926	0.91124	0.722044
0	C	0.0602914	0.104844	0.722303
0	C	0.559214	0.410451	0.837873
0	C	0.431399	0.605549	0.837906
0	C	0.431593	0.41048	0.212383
0	C	0.559548	0.605502	0.212707
0	H	0.0530133	0.958701	0.282611
0	H	0.937534	0.0573342	0.282614
0	H	0.93807	0.958486	0.767752
0	H	0.0533998	0.0577096	0.768168
0	H	0.547919	0.457905	0.793155
0	H	0.442699	0.55812	0.793165
0	H	0.442916	0.457882	0.257161
0	H	0.548504	0.558164	0.257603
0	C	0.279928	0.0931865	0.334816
0	C	0.710691	0.922683	0.33421
0	C	0.711107	0.093274	0.715514
0	C	0.279893	0.922662	0.715906
0	C	0.774727	0.598178	0.844851
0	C	0.215997	0.417706	0.844678
0	C	0.216092	0.598258	0.205547
0	C	0.774841	0.417596	0.205662
0	H	0.329426	0.096738	0.280512
0	H	0.661385	0.919036	0.279784
0	H	0.661522	0.0967731	0.769765
0	H	0.329365	0.919066	0.770224
0	H	0.825506	0.602384	0.791523
0	H	0.165279	0.413423	0.791313
0	H	0.16528	0.60243	0.258854
0	H	0.82563	0.413318	0.258975
0	C	0.19863	0.154601	0.320179
0	C	0.792178	0.861394	0.319805
0	C	0.792229	0.154835	0.730204
0	C	0.198624	0.861206	0.730424
0	C	0.693575	0.659509	0.829467
0	C	0.297277	0.356479	0.829368
0	C	0.297244	0.659582	0.220998
0	C	0.693596	0.35634	0.221005
0	C	0.174888	0.997487	0.40669
0	C	0.815276	0.0184758	0.406366
0	C	0.816349	0.997695	0.64371
0	C	0.174902	0.0183445	0.644027
0	C	0.669722	0.501021	0.914759
0	C	0.32073	0.514992	0.914669
0	C	0.321156	0.501183	0.135609
0	C	0.669941	0.514818	0.135804
0	H	0.12194	0.0468625	0.405419
0	H	0.868221	0.969086	0.405302
0	H	0.86936	0.0470227	0.645125
0	H	0.12187	0.969024	0.645352
0	H	0.614329	0.548378	0.911916
0	H	0.37612	0.467626	0.911956
0	H	0.376554	0.54853	0.138562
0	H	0.61453	0.467476	0.13867
0	H	0.209634	0.999684	0.468658
0	H	0.780247	0.0162889	0.468212
0	H	0.78163	5.97068e-05	0.581742
0	H	0.209711	0.015987	0.582092
0	H	0.703366	0.505576	0.977429
0	H	0.286965	0.510489	0.977294
0	H	0.287559	0.505842	0.0729331
0	H	0.70356	0.510228	0.0731264
0	C	0.121259	0.921303	0.395783
0	C	0.868999	0.094637	0.39566
0	C	0.86984	0.921422	0.654455
0	C	0.121337	0.0945897	0.654682
0	C	0.620731	0.422643	0.904772
0	C	0.369759	0.593355	0.904716
0	C	0.370112	0.422779	0.145501
0	C	0.62093	0.593196	0.145726
0	N	0.131105	0.130156	0.253783
0	N	0.859661	0.885819	0.253349
0	N	0.859707	0.130494	0.796677
0	N	0.131071	0.88552	0.796854
0	N	0.627192	0.635865	0.76189
0	N	0.363577	0.380125	0.761711
0	N	0.363595	0.635872	0.288581
0	N	0.627165	0.380005	0.288542
0	C	0.313138	0.946249	0.325359
0	C	0.677242	0.0695851	0.324669
0	C	0.678152	0.946332	0.725027
0	C	0.313067	0.0695921	0.725469
0	C	0.80946	0.451678	0.834348
0	C	0.18101	0.564155	0.834108
0	C	0.181335	0.45175	0.215829
0	C	0.809795	0.564079	0.216103
0	H	0.268457	0.891976	0.315284
0	H	0.721864	0.123905	0.314659
0	H	0.722878	0.892095	0.735159
0	H	0.268389	0.123854	0.735607
0	H	0.765687	0.397032	0.823688
0	H	0.224691	0.618858	0.823479
0	H	0.225091	0.3971	0.226535
0	H	0.766093	0.618753	0.226828
0	C	0.335118	0.118524	0.413427
0	C	0.655257	0.897364	0.412693
0	C	0.655942	0.118491	0.636851
0	C	0.335161	0.897459	0.637287
0	C	0.828052	0.622995	0.924606
0	C	0.162607	0.392875	0.924394
0	C	0.162803	0.62312	0.125791
0	C	0.828106	0.392763	0.125879
0	H	0.287218	0.119367	0.467703
0	H	0.702898	0.896808	0.467139
0	H	0.703886	0.119371	0.5826
0	H	0.287352	0.896829	0.582952
0	H	0.778712	0.62258	0.978384
0	H	0.211835	0.393464	0.978251
0	H	0.21215	0.622689	0.0720163
0	H	0.778784	0.393353	0.0720929
0	H	0.390764	0.074239	0.427445
0	H	0.599353	0.941522	0.426394
0	H	0.600382	0.0741335	0.622831
0	H	0.390912	0.941717	0.623467
0	H	0.883997	0.578953	0.938646
0	H	0.106491	0.436816	0.93829
0	H	0.106825	0.579114	0.111734
0	H	0.884188	0.436709	0.111907
0	C	0.00766848	0.841853	0.319746
0	C	0.982989	0.174071	0.320053
0	C	0.983148	0.841628	0.730403
0	C	0.00775471	0.174302	0.730416
0	C	0.512121	0.338466	0.828697
0	C	0.478617	0.67749	0.828857
0	C	0.478633	0.338453	0.221477
0	C	0.512212	0.677402	0.221651
0	C	0.244849	0.236158	0.305852
0	C	0.746287	0.779683	0.305687
0	C	0.745782	0.236311	0.74447
0	C	0.244845	0.779624	0.744579
0	C	0.740156	0.741184	0.816688
0	C	0.250916	0.274703	0.81674
0	C	0.250657	0.741244	0.233813
0	C	0.740061	0.274618	0.233744
0	H	0.288807	0.234983	0.24883
0	H	0.702414	0.780595	0.248602
0	H	0.701697	0.235065	0.801413
0	H	0.288921	0.780712	0.801534
0	H	0.786541	0.740284	0.761152
0	H	0.204529	0.27544	0.761197
0	H	0.204173	0.7403	0.289285
0	H	0.786576	0.275473	0.289199
0	H	0.188959	0.280601	0.294204
0	H	0.802344	0.735336	0.294249
0	H	0.801523	0.280863	0.756198
0	H	0.188984	0.735161	0.75623
0	H	0.684729	0.785562	0.803198
0	H	0.306445	0.23039	0.803328
0	H	0.30605	0.785623	0.247408
0	H	0.684611	0.230285	0.247332
0	C	0.130338	0.861335	0.454842
0	C	0.859851	0.154509	0.454827
0	C	0.86072	0.861605	0.595232
0	C	0.130207	0.154235	0.59525
0	C	0.635158	0.362502	0.962804
0	C	0.355312	0.65346	0.962783
0	C	0.355668	0.362721	0.087368
0	C	0.635078	0.653153	0.0874563
0	H	0.177571	0.868662	0.507593
0	H	0.812387	0.147167	0.50743
0	H	0.81361	0.869129	0.542437
0	H	0.177332	0.146676	0.542459
0	H	0.683278	0.371361	0.0150708
0	H	0.307062	0.644616	0.0149613
0	H	0.307586	0.371668	0.0351021
0	H	0.68311	0.644229	0.0351431
0	C	0.0485775	0.185148	0.246795
0	C	0.942221	0.830848	0.246392
0	C	0.942207	0.185511	0.803676
0	C	0.0485933	0.830467	0.803738
0	C	0.544097	0.690381	0.755874
0	C	0.44668	0.32561	0.755679
0	C	0.446742	0.690333	0.294647
0	C	0.544056	0.325494	0.294492
0	C	0.173579	0.107779	0.172323
0	C	0.817085	0.907995	0.171865
0	C	0.817149	0.108122	0.878097
0	C	0.173511	0.907834	0.878346
0	C	0.670776	0.615882	0.680211
0	C	0.319863	0.399983	0.680049
0	C	0.319931	0.615882	0.370222
0	C	0.670706	0.39997	0.370246
0	H	0.241252	0.0749987	0.185883
0	H	0.749504	0.940917	0.185412
0	H	0.749393	0.0754749	0.864501
0	H	0.241172	0.940648	0.864838
0	H	0.737624	0.581987	0.693813
0	H	0.253119	0.434012	0.69369
0	H	0.253005	0.582116	0.356561
0	H	0.737539	0.433893	0.356677
0	C	0.0166458	0.782123	0.379156
0	C	0.974013	0.233668	0.379602
0	C	0.974082	0.782032	0.670871
0	C	0.0165144	0.23372	0.670626
0	C	0.526582	0.278511	0.887002
0	C	0.464189	0.737396	0.887252
0	C	0.464138	0.278577	0.163089
0	C	0.52637	0.737173	0.163079
0	H	0.97585	0.728199	0.373286
0	H	0.0149863	0.287524	0.373968
0	H	0.0147155	0.728016	0.676668
0	H	0.975593	0.287606	0.676218
0	H	0.490174	0.222536	0.880797
0	H	0.500741	0.793319	0.881165
0	H	0.500492	0.222571	0.169235
0	H	0.489751	0.793077	0.169096
0	C	0.0776994	0.792213	0.446407
0	C	0.912707	0.223542	0.446685
0	C	0.913149	0.792367	0.603572
0	C	0.0774519	0.223342	0.603352
0	C	0.587652	0.290953	0.953867
0	C	0.402983	0.72496	0.953996
0	C	0.403102	0.291132	0.096229
0	C	0.587351	0.724642	0.096184
0	H	0.0840159	0.746243	0.49294
0	H	0.906379	0.269417	0.493322
0	H	0.90679	0.746511	0.556924
0	H	0.0835725	0.269046	0.556509
0	H	0.598034	0.24474	0.999602
0	H	0.392599	0.77112	0.999798
0	H	0.392694	0.244993	0.0504159
0	H	0.597497	0.77069	0.0502249
0	C	0.305106	0.261595	0.379995
0	C	0.685988	0.754303	0.379814
0	C	0.685603	0.26162	0.670235
0	C	0.304953	0.754322	0.6703
0	C	0.79696	0.76628	0.89297
0	C	0.194159	0.249623	0.893044
0	C	0.193959	0.766384	0.157491
0	C	0.796655	0.249491	0.157363
0	H	0.339769	0.318585	0.366097
0	H	0.651641	0.697148	0.366084
0	H	0.650798	0.318568	0.684049
0	H	0.339524	0.697246	0.683968
0	H	0.831187	0.823857	0.881263
0	H	0.160143	0.191939	0.881455
0	H	0.159749	0.823971	0.16919
0	H	0.83073	0.191829	0.168945
0	H	0.259099	0.272186	0.434376
0	H	0.731897	0.74407	0.434336
0	H	0.731663	0.272241	0.615894
0	H	0.258874	0.743958	0.615919
0	H	0.748391	0.775317	0.945992
0	H	0.242713	0.240815	0.946121
0	H	0.242577	0.775422	0.104503
0	H	0.747981	0.240613	0.104387
0	C	0.371608	0.959849	0.246308
0	C	0.618971	0.055884	0.245532
0	C	0.619569	0.959918	0.804017
0	C	0.371574	0.0558981	0.80448
0	C	0.868122	0.466194	0.755665
0	C	0.122466	0.549533	0.755383
0	C	0.122443	0.466188	0.294396
0	C	0.868601	0.549514	0.294694
0	H	0.326046	0.980983	0.195718
0	H	0.664689	0.0348882	0.194985
0	H	0.665061	0.981068	0.854653
0	H	0.325954	0.0350363	0.855152
0	H	0.822409	0.486833	0.704949
0	H	0.168296	0.529043	0.704677
0	H	0.167962	0.486968	0.345183
0	H	0.82294	0.529023	0.345509
0	H	0.405011	0.905173	0.225681
0	H	0.585385	0.110478	0.224891
0	H	0.586152	0.905237	0.824609
0	H	0.405362	0.11046	0.824965
0	H	0.902519	0.411927	0.735164
0	H	0.0878491	0.603711	0.734903
0	H	0.0881895	0.411846	0.314867
0	H	0.903233	0.603725	0.31507
0	H	0.428377	0.00320387	0.255383
0	H	0.562352	0.0123793	0.254513
0	H	0.562813	0.00325907	0.794887
0	H	0.428029	0.0122727	0.795421
0	H	0.923815	0.510302	0.765091
0	H	0.0669526	0.505258	0.764746
0	H	0.0665967	0.51014	0.284843
0	H	0.924131	0.505271	0.285216
0	C	0.380282	0.199586	0.401323
0	C	0.610464	0.81615	0.400706
0	C	0.610587	0.199496	0.648855
0	C	0.380209	0.816318	0.64914
0	C	0.872266	0.704746	0.915497
0	C	0.11863	0.31103	0.915372
0	C	0.11864	0.704893	0.13488
0	C	0.872095	0.310911	0.134829
0	H	0.419205	0.217083	0.457806
0	H	0.57137	0.798709	0.457113
0	H	0.571734	0.216898	0.592307
0	H	0.419075	0.798945	0.592587
0	H	0.908264	0.721535	0.973704
0	H	0.082583	0.294262	0.973559
0	H	0.0827454	0.721706	0.0766336
0	H	0.907936	0.294128	0.0765472
0	H	0.43376	0.196634	0.351101
0	H	0.557208	0.818804	0.350293
0	H	0.557014	0.196503	0.698994
0	H	0.433702	0.819073	0.699358
0	H	0.927964	0.703525	0.867177
0	H	0.0630044	0.312066	0.866987
0	H	0.0628574	0.703696	0.183125
0	H	0.927884	0.311962	0.183074
0	C	0.379448	0.930083	0.399117
0	C	0.610706	0.0856961	0.398284
0	C	0.611918	0.930089	0.651237
0	C	0.379363	0.0858093	0.651716
0	C	0.875202	0.435535	0.9085
0	C	0.115125	0.580223	0.908184
0	C	0.11578	0.435648	0.141544
0	C	0.875417	0.580172	0.141859
0	H	0.339647	0.909969	0.4533
0	H	0.650289	0.106046	0.452489
0	H	0.651777	0.910036	0.597061
0	H	0.339571	0.106022	0.59757
0	H	0.834793	0.414121	0.961902
0	H	0.15537	0.601849	0.961581
0	H	0.156311	0.414313	0.0881721
0	H	0.834955	0.601656	0.0885215
0	H	0.419095	0.983061	0.417116
0	H	0.571258	0.0326292	0.41633
0	H	0.572173	0.983009	0.633227
0	H	0.418943	0.0328241	0.633628
0	H	0.913551	0.488708	0.927912
0	H	0.0769973	0.52696	0.927657
0	H	0.0774229	0.488814	0.122132
0	H	0.913623	0.526952	0.122375
0	H	0.431339	0.884361	0.383987
0	H	0.558601	0.131204	0.382964
0	H	0.560089	0.884306	0.666327
0	H	0.431346	0.131455	0.666895
0	H	0.928059	0.390652	0.893301
0	H	0.0620497	0.624894	0.892864
0	H	0.0629194	0.390723	0.156593
0	H	0.928405	0.624973	0.156995
0	C	0.197388	0.177114	0.114831
0	C	0.792997	0.838507	0.114676
0	C	0.793484	0.177452	0.935642
0	C	0.19733	0.838431	0.935738
0	C	0.696964	0.686791	0.625655
0	C	0.293375	0.328993	0.62573
0	C	0.293873	0.68678	0.424844
0	C	0.696903	0.32904	0.424764
0	H	0.245607	0.218965	0.145153
0	H	0.744685	0.796867	0.145219
0	H	0.745493	0.219455	0.905293
0	H	0.245384	0.79654	0.905288
0	H	0.747855	0.725664	0.657111
0	H	0.242399	0.290315	0.657357
0	H	0.243165	0.725797	0.393369
0	H	0.747664	0.290113	0.393228
0	H	0.134163	0.209763	0.0960335
0	H	0.856085	0.805645	0.095946
0	H	0.856785	0.209918	0.954601
0	H	0.134092	0.805846	0.954622
0	H	0.635184	0.722353	0.60922
0	H	0.355	0.293234	0.60933
0	H	0.355729	0.72219	0.44143
0	H	0.635111	0.293535	0.441297
0	H	0.232146	0.156647	0.0582462
0	H	0.758215	0.858834	0.0580467
0	H	0.758503	0.156999	0.992129
0	H	0.232278	0.858814	0.992271
0	H	0.729888	0.667568	0.567775
0	H	0.260414	0.348135	0.567835
0	H	0.260761	0.667541	0.482637
0	H	0.72999	0.348241	0.482585
0	C	0.105314	0.050192	0.129636
0	C	0.885371	0.965347	0.128851
0	C	0.885261	0.0503737	0.920735
0	C	0.105194	0.965355	0.921079
0	C	0.602873	0.560363	0.633986
0	C	0.387771	0.455293	0.633543
0	C	0.387678	0.5602	0.416411
0	C	0.602745	0.455443	0.416478
0	H	0.0921308	0.99961	0.170622
0	H	0.898927	0.0159512	0.169705
0	H	0.898595	0.999955	0.879561
0	H	0.0917736	0.0158432	0.88002
0	H	0.584958	0.510001	0.673816
0	H	0.406124	0.505598	0.673299
0	H	0.405793	0.510023	0.376391
0	H	0.584561	0.505667	0.376546
0	H	0.134414	0.0280979	0.070971
0	H	0.856057	0.987442	0.0702642
0	H	0.855906	0.0280398	0.979203
0	H	0.134409	0.987603	0.979638
0	H	0.635036	0.537639	0.577149
0	H	0.355397	0.478112	0.576835
0	H	0.355264	0.537208	0.473023
0	H	0.635007	0.478372	0.473184
0	H	0.03642	0.0771902	0.116357
0	H	0.954088	0.938145	0.11535
0	H	0.954092	0.0773232	0.934352
0	H	0.036414	0.938254	0.934549
0	H	0.53618	0.589266	0.617232
0	H	0.454231	0.426173	0.616514
0	H	0.454267	0.58907	0.433533
0	H	0.536198	0.426428	0.433448
0	H	0.154544	0.15758	0.3782
0	H	0.836247	0.858686	0.377854
0	H	0.836359	0.157877	0.672215
0	H	0.154554	0.858324	0.672386
0	H	0.648431	0.662147	0.886886
0	H	0.342461	0.354017	0.886776
0	H	0.342397	0.662251	0.163585
0	H	0.64849	0.35377	0.163556
0	H	0.00889274	0.171242	0.188896
0	H	0.981977	0.844845	0.18855
0	H	0.981862	0.171656	0.861601
0	H	0.00882272	0.844308	0.861608
0	H	0.504542	0.676907	0.69775
0	H	0.48624	0.339113	0.697565
0	H	0.486257	0.676817	0.352779
0	H	0.504463	0.338934	0.352605
0	H	0.0709496	0.247758	0.241243
0	H	0.919888	0.768239	0.240724
0	H	0.919824	0.24812	0.809149
0	H	0.070997	0.767863	0.809245
0	H	0.565811	0.753242	0.751432
0	H	0.424976	0.262751	0.751197
0	H	0.425082	0.753203	0.299093
0	H	0.565755	0.262628	0.298895
