#******************************************
#
# CIF file created by Zeo++
# Zeo++ is an open source package to
# analyze microporous materials
#
#*******************************************

_cell_length_a		12.9788(0)
_cell_length_b		29.1273(0)
_cell_length_c		12.1704(0)
_cell_angle_alpha		90(0)
_cell_angle_beta		90(0)
_cell_angle_gamma		90(0)

_symmetry_space_group_name_H-M		'P1'
_symmetry_Int_Tables_number		1
_symmetry_cell_setting		Monoclinic

loop_
_symmetry_equiv_pos_as_xyz
'+x,+y,+z'

loop_
_atom_site_label
_atom_site_type_symbol
_atom_site_fract_x
_atom_site_fract_y
_atom_site_fract_z
0	S	0.829715	0.282321	0.0492012
0	S	0.664765	0.721065	0.549009
0	S	0.165889	0.783428	0.446429
0	S	0.331266	0.219888	0.946327
0	S	0.143362	0.663428	0.92883
0	S	0.3526	0.33967	0.429043
0	S	0.851667	0.162082	0.565689
0	S	0.644098	0.841047	0.0656094
0	O	0.668372	0.293345	0.7796
0	O	0.826484	0.710105	0.279736
0	O	0.327552	0.79405	0.715906
0	O	0.170056	0.209258	0.216153
0	O	0.0295949	0.645932	0.209059
0	O	0.465844	0.357249	0.709409
0	O	0.965882	0.144608	0.28556
0	O	0.530043	0.858484	0.785227
0	O	0.770772	0.296977	0.143923
0	O	0.72374	0.706485	0.64376
0	O	0.2252	0.798152	0.352023
0	O	0.271873	0.20522	0.851933
0	O	0.20734	0.62501	0.95896
0	O	0.288543	0.378049	0.45921
0	O	0.787533	0.123665	0.53596
0	O	0.708265	0.879406	0.0355828
0	O	0.910107	0.312806	0.0113172
0	O	0.584468	0.690499	0.511234
0	O	0.0854568	0.813919	0.484181
0	O	0.411552	0.189302	0.98402
0	O	0.0816832	0.658385	0.82981
0	O	0.414274	0.344793	0.330045
0	O	0.913653	0.157064	0.664519
0	O	0.582208	0.846239	0.164459
0	N	0.745911	0.272703	0.939545
0	N	0.748418	0.730772	0.439328
0	N	0.249282	0.773523	0.55624
0	N	0.247956	0.229769	0.0562383
0	N	0.0631652	0.676032	0.0391405
0	N	0.432602	0.327096	0.539466
0	N	0.931509	0.174695	0.455221
0	N	0.564246	0.828496	0.955108
0	C	0.721115	0.434006	0.883345
0	C	0.772606	0.569486	0.384042
0	C	0.275149	0.93453	0.61022
0	C	0.22145	0.0687604	0.110554
0	C	0.823593	0.546766	0.0863147
0	C	0.670655	0.45678	0.586238
0	C	0.172867	0.0461577	0.408424
0	C	0.323808	0.957173	0.908356
0	C	0.732915	0.389534	0.851159
0	C	0.760896	0.613957	0.351831
0	C	0.263353	0.890145	0.642955
0	C	0.233411	0.113134	0.143346
0	C	0.900603	0.574415	0.123605
0	C	0.59368	0.429122	0.623473
0	C	0.0951344	0.0734424	0.371472
0	C	0.40154	0.929896	0.871336
0	C	0.687769	0.352948	0.914543
0	C	0.806785	0.650526	0.414696
0	C	0.30894	0.853459	0.580306
0	C	0.188174	0.149853	0.0805192
0	C	0.936089	0.612734	0.0587599
0	C	0.558836	0.390623	0.558898
0	C	0.0594808	0.111765	0.436195
0	C	0.437034	0.891569	0.936058
0	C	0.633136	0.362395	0.00779939
0	C	0.862036	0.641075	0.507539
0	C	0.364012	0.862626	0.487154
0	C	0.133195	0.140722	0.987314
0	C	0.617502	0.409272	0.0429763
0	C	0.87749	0.5942	0.54278
0	C	0.379679	0.909421	0.451409
0	C	0.117411	0.0939382	0.951522
0	C	0.810691	0.592748	0.916706
0	C	0.684146	0.410553	0.416937
0	C	0.185533	0.0923537	0.57793
0	C	0.311378	0.911084	0.0780377
0	C	0.893734	0.620862	0.95766
0	C	0.60131	0.38238	0.457893
0	C	0.10203	0.12021	0.537089
0	C	0.394756	0.883201	0.037078
0	C	0.487494	0.475261	0.270218
0	C	0.00923588	0.528111	0.768489
0	C	0.510249	0.97525	0.224281
0	C	0.986579	0.0282732	0.724233
0	C	0.630335	0.587949	0.674708
0	C	0.86485	0.415333	0.175454
0	C	0.365705	0.0873991	0.820039
0	C	0.132046	0.916215	0.320888
0	C	0.474765	0.519518	0.30362
0	C	0.0220855	0.483847	0.801779
0	C	0.523139	0.0194878	0.190785
0	C	0.973796	0.984072	0.69041
0	C	0.544262	0.564933	0.642219
0	C	0.950842	0.438422	0.143022
0	C	0.451745	0.0643579	0.852531
0	C	0.0459784	0.939204	0.353553
0	C	0.517487	0.556644	0.240475
0	C	0.978513	0.446751	0.739231
0	C	0.480223	0.056697	0.253542
0	C	0.017105	0.946831	0.752713
0	C	0.500524	0.529908	0.711117
0	C	0.994461	0.473473	0.211961
0	C	0.496227	0.0297142	0.783092
0	C	0.00103509	0.973671	0.283928
0	C	0.571317	0.548106	0.146617
0	C	0.923884	0.455298	0.645923
0	C	0.426069	0.0482412	0.347229
0	C	0.0711162	0.955195	0.846549
0	C	0.588458	0.501627	0.108916
0	C	0.906545	0.501789	0.608437
0	C	0.408924	0.00179092	0.385098
0	C	0.0880177	0.00159956	0.884923
0	C	0.638166	0.541414	0.845545
0	C	0.856413	0.462028	0.345924
0	C	0.358932	0.0413876	0.648485
0	C	0.138125	0.962016	0.148903
0	C	0.545769	0.518456	0.808375
0	C	0.94886	0.485011	0.308969
0	C	0.451561	0.0185509	0.685352
0	C	0.0454792	0.984797	0.186027
0	C	0.645704	0.491783	0.0130738
0	C	0.848682	0.511705	0.5131
0	C	0.35157	0.991967	0.480782
0	C	0.145151	0.0113518	0.98084
0	C	0.661709	0.445849	0.979816
0	C	0.832607	0.557654	0.480058
0	C	0.335203	0.946075	0.514047
0	C	0.161578	0.0572353	0.0142306
0	C	0.773017	0.555563	0.982543
0	C	0.721391	0.447864	0.482635
0	C	0.223632	0.0553292	0.511878
0	C	0.27313	0.948048	0.011895
0	C	0.687183	0.530071	0.945688
0	C	0.80713	0.473404	0.445855
0	C	0.310009	0.0301523	0.548293
0	C	0.186733	0.973193	0.0484459
0	C	0.559609	0.419231	0.137393
0	C	0.935964	0.584176	0.636723
0	C	0.437738	0.919348	0.357094
0	C	0.0594259	0.0840702	0.857113
0	C	0.545236	0.464703	0.17173
0	C	0.950428	0.538677	0.670806
0	C	0.452191	0.964795	0.322607
0	C	0.0447947	0.0386439	0.822505
0	C	0.679377	0.577425	0.778357
0	C	0.815571	0.425887	0.278924
0	C	0.317121	0.0771139	0.716057
0	C	0.18021	0.926365	0.216565
0	C	0.764877	0.60249	0.814953
0	C	0.730247	0.400706	0.315412
0	C	0.231417	0.102091	0.679642
0	C	0.265775	0.901359	0.179898
0	C	0.698438	0.305396	0.870049
0	C	0.79622	0.698075	0.370108
0	C	0.297698	0.806045	0.625359
0	C	0.199676	0.197259	0.125512
0	C	0.012365	0.643956	0.111078
0	C	0.483014	0.359255	0.611416
0	C	0.982908	0.14273	0.383591
0	C	0.513175	0.860462	0.883291
0	C	0.753189	0.224008	0.901665
0	C	0.741094	0.779509	0.401711
0	C	0.24204	0.724757	0.593442
0	C	0.255262	0.278516	0.093562
0	C	0.0896175	0.721784	0.0866121
0	C	0.406567	0.281272	0.586658
0	C	0.905471	0.220534	0.408027
0	C	0.590059	0.782684	0.907827
0	C	0.650854	0.19776	0.882203
0	C	0.843478	0.805764	0.382447
0	C	0.344623	0.698631	0.612493
0	C	0.152757	0.304703	0.112561
0	C	0.996751	0.753834	0.110654
0	C	0.499855	0.24944	0.610535
0	C	0.998777	0.2524	0.384409
0	C	0.49664	0.750931	0.88397
0	C	0.664092	0.153862	0.953613
0	C	0.830209	0.849609	0.454081
0	C	0.331577	0.654878	0.540539
0	C	0.166014	0.348465	0.0407048
0	C	0.023835	0.797823	0.0444075
0	C	0.47318	0.205436	0.544163
0	C	0.971842	0.296419	0.450637
0	C	0.52322	0.706902	0.950275
0	C	0.754707	0.125727	0.90437
0	C	0.739599	0.877794	0.40495
0	C	0.241033	0.626586	0.589459
0	C	0.256623	0.376673	0.0897714
0	C	0.122154	0.819021	0.0963393
0	C	0.375035	0.184065	0.596079
0	C	0.873678	0.317775	0.398733
0	C	0.621294	0.685513	0.898266
0	C	0.852406	0.153341	0.937905
0	C	0.641904	0.850137	0.438329
0	C	0.143194	0.654131	0.555954
0	C	0.35439	0.349113	0.0562025
0	C	0.210529	0.786452	0.0593324
0	C	0.28635	0.216483	0.559123
0	C	0.78507	0.285301	0.435653
0	C	0.710091	0.717835	0.935382
0	C	0.80593	0.195698	0.997218
0	C	0.688322	0.807717	0.49745
0	C	0.189516	0.696691	0.497333
0	C	0.307946	0.306599	0.997571
0	C	0.151582	0.748657	0.995222
0	C	0.344921	0.254395	0.495037
0	C	0.84372	0.24737	0.499648
0	C	0.651602	0.755772	0.999421
0	C	0.712014	0.173738	0.0623319
0	C	0.782214	0.829624	0.562656
0	C	0.28359	0.674983	0.432082
0	C	0.213974	0.328385	0.932225
0	C	0.065665	0.777615	0.933069
0	C	0.431127	0.225658	0.432896
0	C	0.929855	0.276146	0.561867
0	C	0.565238	0.727105	0.0615706
0	C	0.877325	0.226477	0.0628392
0	C	0.616806	0.776848	0.56269
0	C	0.118117	0.727648	0.432167
0	C	0.37919	0.27565	0.932214
0	C	0.213641	0.714851	0.927514
0	C	0.282604	0.288183	0.427524
0	C	0.781448	0.213517	0.567061
0	C	0.713872	0.789496	0.0671905
0	C	0.745858	0.137628	0.146027
0	C	0.748445	0.865616	0.646653
0	C	0.250167	0.639089	0.347706
0	C	0.247607	0.364332	0.848046
0	C	0.111072	0.813099	0.853972
0	C	0.386266	0.190144	0.353583
0	C	0.884756	0.311547	0.641326
0	C	0.610048	0.691569	0.140881
0	C	0.640879	0.20751	0.121375
0	C	0.853281	0.795814	0.621647
0	C	0.354535	0.708953	0.373446
0	C	0.143	0.294428	0.873573
0	C	0.984179	0.750514	0.869938
0	C	0.512239	0.252958	0.369617
0	C	0.011221	0.248923	0.624888
0	C	0.484089	0.754505	0.124597
0	H	0.756818	0.461813	0.836325
0	H	0.736396	0.541663	0.337508
0	H	0.23893	0.962463	0.656371
0	H	0.257383	0.0408152	0.156906
0	H	0.798095	0.517219	0.1348
0	H	0.695977	0.486407	0.634536
0	H	0.19869	0.0166201	0.360117
0	H	0.297967	0.986635	0.859866
0	H	0.776204	0.380638	0.777331
0	H	0.717162	0.622834	0.278328
0	H	0.219704	0.881444	0.716621
0	H	0.276823	0.121824	0.217214
0	H	0.936876	0.568729	0.203617
0	H	0.55695	0.434916	0.703194
0	H	0.0583281	0.0674783	0.291863
0	H	0.438384	0.935806	0.791737
0	H	0.600645	0.335067	0.0587457
0	H	0.895254	0.668359	0.558026
0	H	0.396777	0.835171	0.43684
0	H	0.100509	0.168213	0.937019
0	H	0.920281	0.649093	0.904975
0	H	0.575041	0.354062	0.405356
0	H	0.0753001	0.14846	0.589635
0	H	0.421521	0.854953	0.0896297
0	H	0.525102	0.391334	0.185482
0	H	0.970813	0.61199	0.684775
0	H	0.472269	0.891419	0.309132
0	H	0.0250918	0.112034	0.809122
0	H	0.79464	0.630586	0.764142
0	H	0.700849	0.372483	0.264793
0	H	0.201522	0.130087	0.73067
0	H	0.295771	0.873337	0.230769
0	H	0.454878	0.446684	0.316783
0	H	0.0425118	0.55672	0.81445
0	H	0.542912	0.946582	0.178016
0	H	0.953583	0.0569497	0.678231
0	H	0.664204	0.614874	0.623553
0	H	0.83108	0.388326	0.124451
0	H	0.331414	0.114118	0.871446
0	H	0.166594	0.889611	0.372489
0	H	0.432309	0.527875	0.378167
0	H	0.065354	0.475504	0.875817
0	H	0.565893	0.0278295	0.116413
0	H	0.930847	0.975802	0.616086
0	H	0.507061	0.57244	0.563992
0	H	0.988051	0.430948	0.0648122
0	H	0.48843	0.07159	0.931143
0	H	0.00966454	0.932093	0.432469
0	H	0.50538	0.591598	0.269615
0	H	0.990677	0.411793	0.768315
0	H	0.492367	0.0916375	0.224186
0	H	0.00535301	0.911924	0.72292
0	H	0.430538	0.512766	0.683377
0	H	0.0646085	0.490532	0.18455
0	H	0.566291	0.0126242	0.8108
0	H	0.930837	0.990619	0.311624
0	H	0.602628	0.576166	0.0975094
0	H	0.892096	0.427246	0.597118
0	H	0.39447	0.07634	0.395993
0	H	0.102849	0.927037	0.895041
0	H	0.512573	0.491956	0.860965
0	H	0.981798	0.511581	0.361612
0	H	0.48533	0.992377	0.632265
0	H	0.011468	0.0109048	0.132922
0	H	0.800624	0.223297	0.824861
0	H	0.693551	0.780299	0.32498
0	H	0.194458	0.723806	0.670126
0	H	0.302696	0.279426	0.170342
0	H	0.136309	0.716885	0.162879
0	H	0.359771	0.285986	0.662907
0	H	0.85874	0.215808	0.331734
0	H	0.636743	0.78736	0.831506
0	H	0.582336	0.217373	0.907968
0	H	0.91191	0.78609	0.408303
0	H	0.41288	0.718432	0.586622
0	H	0.0844216	0.284961	0.0867826
0	H	0.922975	0.738508	0.0846435
0	H	0.573446	0.264966	0.584298
0	H	0.0722002	0.236921	0.411168
0	H	0.423091	0.766491	0.910146
0	H	0.639359	0.189613	0.79485
0	H	0.855131	0.813995	0.295142
0	H	0.356513	0.690332	0.699726
0	H	0.140951	0.312966	0.199801
0	H	0.987952	0.760508	0.199151
0	H	0.508984	0.242735	0.699018
0	H	0.00839763	0.25903	0.295989
0	H	0.487414	0.744285	0.79551
0	H	0.592144	0.134567	0.964252
0	H	0.902128	0.868908	0.465061
0	H	0.403595	0.635656	0.529458
0	H	0.0941007	0.367758	0.0298308
0	H	0.959962	0.822096	0.0361573
0	H	0.537246	0.18122	0.535607
0	H	0.035854	0.320617	0.459203
0	H	0.459094	0.682727	0.958621
0	H	0.756649	0.0906296	0.937497
0	H	0.737663	0.912883	0.438197
0	H	0.239356	0.591497	0.556241
0	H	0.258408	0.41176	0.0566113
0	H	0.117411	0.821308	0.186662
0	H	0.379826	0.181832	0.686407
0	H	0.878443	0.320045	0.308386
0	H	0.616459	0.683407	0.807919
0	H	0.748439	0.122118	0.814601
0	H	0.745849	0.881459	0.31517
0	H	0.247191	0.622945	0.679257
0	H	0.250428	0.380277	0.179565
0	H	0.134501	0.854293	0.0666463
0	H	0.363072	0.148754	0.566462
0	H	0.861519	0.353082	0.428367
0	H	0.633184	0.650172	0.927605
0	H	0.903097	0.133366	0.992661
0	H	0.591219	0.87004	0.493245
0	H	0.0928502	0.634231	0.500696
0	H	0.404735	0.369036	0.00095567
0	H	0.253583	0.772856	0.130339
0	H	0.243284	0.230025	0.630186
0	H	0.741969	0.271807	0.364529
0	H	0.753203	0.731359	0.864337
0	H	0.899094	0.162695	0.865381
0	H	0.595238	0.840845	0.365723
0	H	0.0961754	0.663254	0.628425
0	H	0.401387	0.33996	0.128648
0	H	0.266938	0.804283	0.00666929
0	H	0.23007	0.198595	0.50649
0	H	0.728754	0.303155	0.488359
0	H	0.766301	0.69986	0.987929
0	H	0.882286	0.213898	0.149406
0	H	0.611455	0.789374	0.649262
0	H	0.113096	0.715282	0.345463
0	H	0.38414	0.288096	0.845522
0	H	0.292655	0.710767	0.961723
0	H	0.203609	0.292079	0.461889
0	H	0.702516	0.209557	0.532481
0	H	0.792952	0.793431	0.0331466
0	H	0.95825	0.222973	0.0343531
0	H	0.535982	0.780373	0.533813
0	H	0.0372135	0.724046	0.460734
0	H	0.460161	0.279124	0.960575
0	H	0.228505	0.729044	0.843962
0	H	0.267785	0.274083	0.343904
0	H	0.766417	0.227626	0.650618
0	H	0.72839	0.775343	0.150826
0	H	0.679478	0.121426	0.185892
0	H	0.814941	0.881747	0.686497
0	H	0.316843	0.623014	0.308078
0	H	0.181109	0.380425	0.808147
0	H	0.0518827	0.837017	0.825022
0	H	0.445744	0.166266	0.325067
0	H	0.944147	0.335385	0.67023
0	H	0.550524	0.667811	0.169816
0	H	0.791737	0.109815	0.110099
0	H	0.702491	0.893474	0.611086
0	H	0.204079	0.611186	0.382874
0	H	0.293585	0.392217	0.883508
0	H	0.172597	0.833892	0.890641
0	H	0.324584	0.169349	0.389861
0	H	0.823178	0.332414	0.605052
0	H	0.671378	0.670639	0.104337
0	H	0.794217	0.152625	0.210987
0	H	0.700165	0.850468	0.711509
0	H	0.202169	0.654299	0.282717
0	H	0.295833	0.349212	0.783129
0	H	0.144971	0.79643	0.781608
0	H	0.352782	0.206856	0.281032
0	H	0.851021	0.294755	0.713643
0	H	0.643987	0.708234	0.213239
0	H	0.571733	0.189603	0.151219
0	H	0.922214	0.813752	0.651936
0	H	0.423784	0.691166	0.343482
0	H	0.0737694	0.312185	0.843502
0	H	0.939544	0.727009	0.921788
0	H	0.556658	0.276596	0.42131
0	H	0.0558535	0.22544	0.572998
0	H	0.439857	0.778118	0.0726167
0	H	0.678453	0.223848	0.191964
0	H	0.815417	0.779367	0.691924
0	H	0.316798	0.725337	0.30301
0	H	0.180665	0.278005	0.803156
0	H	0.928446	0.773662	0.830913
0	H	0.568058	0.229881	0.330454
0	H	0.0669735	0.272027	0.664044
0	H	0.42806	0.731533	0.163733
0	H	0.61198	0.235074	0.0685181
0	H	0.882475	0.768344	0.568739
0	H	0.383222	0.736478	0.426486
0	H	0.114324	0.266905	0.926664
0	H	0.0175843	0.729574	0.803808
0	H	0.47835	0.273803	0.303516
0	H	0.977616	0.227947	0.69084
0	H	0.517776	0.775397	0.190719
