#******************************************
#
# CIF file created by Zeo++
# Zeo++ is an open source package to
# analyze microporous materials
#
#*******************************************

_cell_length_a		21.5198(0)
_cell_length_b		16.8013(0)
_cell_length_c		9.10296(0)
_cell_angle_alpha		90(0)
_cell_angle_beta		94.2904(0)
_cell_angle_gamma		90(0)

_symmetry_space_group_name_H-M		'P1'
_symmetry_Int_Tables_number		1
_symmetry_cell_setting		Monoclinic

loop_
_symmetry_equiv_pos_as_xyz
'+x,+y,+z'

loop_
_atom_site_label
_atom_site_type_symbol
_atom_site_fract_x
_atom_site_fract_y
_atom_site_fract_z
0	Br	0.552207	0.190925	0.0701865
0	Br	0.500159	0.19353	0.482208
0	Br	0.500405	0.82771	0.983697
0	Br	0.552637	0.826575	0.571615
0	Br	0.0551436	0.694461	0.0727456
0	Br	0.996648	0.696501	0.481664
0	Br	0.997359	0.324528	0.981467
0	Br	0.0559673	0.323227	0.572441
0	O	0.261216	0.168031	0.0549562
0	O	0.792312	0.168037	0.501591
0	O	0.791632	0.851141	0.999862
0	O	0.260712	0.851149	0.553339
0	O	0.765573	0.668419	0.0512419
0	O	0.287498	0.668613	0.505288
0	O	0.28715	0.350853	0.00340389
0	O	0.765169	0.35044	0.549171
0	O	0.376401	0.0927534	0.127182
0	O	0.67616	0.0956428	0.425095
0	O	0.676201	0.9259	0.926601
0	O	0.376564	0.924217	0.628735
0	O	0.880309	0.593192	0.124238
0	O	0.171777	0.596131	0.428669
0	O	0.172213	0.425655	0.929682
0	O	0.880802	0.423459	0.625469
0	C	0.460312	0.184887	0.093627
0	C	0.592069	0.187754	0.458254
0	C	0.592296	0.833783	0.960113
0	C	0.460722	0.832203	0.595463
0	C	0.963212	0.687002	0.0922489
0	C	0.0885657	0.689635	0.461326
0	C	0.0892787	0.331959	0.961739
0	C	0.964053	0.330003	0.592767
0	C	0.423319	0.226494	0.967007
0	C	0.629197	0.228683	0.585395
0	C	0.62933	0.792308	0.0868376
0	C	0.423633	0.791126	0.468451
0	C	0.926669	0.728097	0.96433
0	C	0.125309	0.730004	0.589706
0	C	0.125863	0.290944	0.0897147
0	C	0.927343	0.289514	0.46449
0	C	0.349659	0.208182	0.73478
0	C	0.701734	0.20889	0.818764
0	C	0.702772	0.81093	0.319388
0	C	0.350849	0.810578	0.235411
0	C	0.853793	0.708569	0.731246
0	C	0.197543	0.709038	0.823147
0	C	0.19862	0.310686	0.322983
0	C	0.855036	0.310217	0.231165
0	C	0.356756	0.298917	0.714052
0	C	0.694903	0.299544	0.841069
0	C	0.695746	0.720199	0.340351
0	C	0.357784	0.719919	0.213261
0	C	0.86033	0.799347	0.710493
0	C	0.191126	0.799703	0.845597
0	C	0.192115	0.219893	0.343886
0	C	0.861537	0.219523	0.208957
0	C	0.351248	0.174263	0.586959
0	C	0.699486	0.174279	0.965798
0	C	0.700996	0.844969	0.467055
0	C	0.352908	0.845061	0.0882252
0	C	0.855653	0.674667	0.583474
0	C	0.195463	0.674198	0.970061
0	C	0.196681	0.344699	0.47064
0	C	0.85703	0.344862	0.0840754
0	C	0.3555	0.151032	0.462779
0	C	0.69507	0.150518	0.0895638
0	C	0.696612	0.868338	0.591109
0	C	0.357213	0.868602	0.964268
0	C	0.859207	0.651246	0.459141
0	C	0.192043	0.649875	0.0938347
0	C	0.193098	0.368292	0.594852
0	C	0.860375	0.368933	0.960098
0	C	0.287369	0.192018	0.808652
0	C	0.764296	0.192733	0.746214
0	C	0.765115	0.827163	0.245849
0	C	0.288331	0.826608	0.308287
0	C	0.791392	0.691419	0.804085
0	C	0.260106	0.692237	0.750893
0	C	0.261052	0.32786	0.250341
0	C	0.79246	0.326947	0.303472
0	C	0.23621	0.148233	0.709809
0	C	0.814948	0.148577	0.845972
0	C	0.816139	0.871103	0.344904
0	C	0.237538	0.870614	0.208743
0	C	0.741333	0.645745	0.70517
0	C	0.310079	0.646553	0.850141
0	C	0.311034	0.373591	0.349418
0	C	0.742464	0.372569	0.204242
0	C	0.250406	0.060968	0.691763
0	C	0.800588	0.0612881	0.86299
0	C	0.80184	0.958355	0.362679
0	C	0.251749	0.957932	0.19155
0	C	0.757003	0.558754	0.689418
0	C	0.294608	0.559442	0.865012
0	C	0.295321	0.460578	0.365038
0	C	0.757872	0.459693	0.189279
0	C	0.226998	0.000949808	0.765262
0	C	0.823569	0.00140956	0.788358
0	C	0.825042	0.0183415	0.288709
0	C	0.228511	0.017798	0.265758
0	C	0.734459	0.498664	0.764296
0	C	0.316579	0.499702	0.78825
0	C	0.317687	0.520609	0.289691
0	C	0.735702	0.519451	0.265658
0	C	0.171798	0.163022	0.76592
0	C	0.879713	0.163558	0.791943
0	C	0.880619	0.856367	0.289164
0	C	0.172848	0.855468	0.263106
0	C	0.676416	0.659217	0.759504
0	C	0.375139	0.66053	0.796965
0	C	0.376001	0.360158	0.295334
0	C	0.677425	0.358517	0.257441
0	C	0.294889	0.150926	0.958494
0	C	0.757574	0.151692	0.596316
0	C	0.757735	0.868154	0.0959114
0	C	0.295172	0.867687	0.458142
0	C	0.799116	0.651112	0.954664
0	C	0.253004	0.651948	0.600348
0	C	0.253436	0.368096	0.0996803
0	C	0.79957	0.367242	0.454018
0	C	0.343189	0.0844359	0.981455
0	C	0.708729	0.0859941	0.571204
0	C	0.709316	0.934471	0.0723969
0	C	0.343864	0.933617	0.48272
0	C	0.847641	0.584909	0.977976
0	C	0.204024	0.586451	0.575043
0	C	0.204817	0.434157	0.0759638
0	C	0.848465	0.432905	0.479134
0	C	0.450438	0.0519778	0.962994
0	C	0.601203	0.0540774	0.586424
0	C	0.602011	0.966838	0.0903163
0	C	0.451331	0.965761	0.466917
0	C	0.955367	0.554024	0.961377
0	C	0.0961374	0.555825	0.589353
0	C	0.0970801	0.465033	0.0922097
0	C	0.956299	0.46374	0.46446
0	C	0.443256	0.0964011	0.108171
0	C	0.609151	0.0993348	0.442449
0	C	0.60932	0.922268	0.945336
0	C	0.443551	0.920604	0.611076
0	C	0.947177	0.598185	0.106396
0	C	0.104801	0.600953	0.445535
0	C	0.105328	0.420749	0.94735
0	C	0.94776	0.418676	0.6084
0	C	0.407164	0.174041	0.829962
0	C	0.644413	0.175579	0.72195
0	C	0.645308	0.844885	0.223821
0	C	0.408197	0.844104	0.331837
0	C	0.91132	0.675279	0.827393
0	C	0.140109	0.676446	0.725873
0	C	0.141112	0.343855	0.226581
0	C	0.912433	0.342971	0.328256
0	C	0.393911	0.0865491	0.870474
0	C	0.65746	0.0880958	0.680779
0	C	0.658504	0.932382	0.18316
0	C	0.395044	0.931575	0.372905
0	C	0.898718	0.587641	0.867936
0	C	0.1526	0.588923	0.684199
0	C	0.15369	0.431474	0.185862
0	C	0.899828	0.430485	0.36983
0	H	0.454325	0.217401	0.198371
0	H	0.597911	0.22079	0.35399
0	H	0.59827	0.80118	0.855443
0	H	0.454903	0.79922	0.699784
0	H	0.955823	0.719437	0.196441
0	H	0.0956382	0.722677	0.357638
0	H	0.0966185	0.299432	0.857608
0	H	0.957003	0.297004	0.696505
0	H	0.448051	0.28073	0.933136
0	H	0.604982	0.283294	0.619211
0	H	0.604687	0.73801	0.12069
0	H	0.447912	0.736558	0.434649
0	H	0.95141	0.782378	0.930637
0	H	0.101037	0.784532	0.623765
0	H	0.101198	0.236628	0.123416
0	H	0.951677	0.235017	0.430497
0	H	0.379681	0.250176	0.0104708
0	H	0.673229	0.251606	0.542623
0	H	0.673039	0.768774	0.043516
0	H	0.379675	0.768075	0.511373
0	H	0.882757	0.751804	0.00636021
0	H	0.169482	0.753134	0.547977
0	H	0.169812	0.267319	0.0477727
0	H	0.883213	0.266297	0.506288
0	H	0.324044	0.321119	0.623613
0	H	0.727639	0.321043	0.932157
0	H	0.728424	0.698111	0.430973
0	H	0.325036	0.698295	0.122349
0	H	0.827595	0.821202	0.619848
0	H	0.224084	0.820965	0.936392
0	H	0.224781	0.198115	0.434748
0	H	0.828547	0.198172	0.118343
0	H	0.346504	0.332482	0.813445
0	H	0.705449	0.333548	0.742423
0	H	0.706138	0.686598	0.241083
0	H	0.347352	0.685923	0.312013
0	H	0.849726	0.832844	0.809732
0	H	0.20166	0.833758	0.746904
0	H	0.202845	0.186379	0.244775
0	H	0.851115	0.185569	0.307784
0	H	0.4038	0.314955	0.68625
0	H	0.647902	0.315682	0.868954
0	H	0.648714	0.704097	0.367921
0	H	0.404776	0.703858	0.185295
0	H	0.907323	0.815821	0.683037
0	H	0.144206	0.816115	0.873896
0	H	0.145101	0.20337	0.371124
0	H	0.908439	0.203192	0.180516
0	H	0.357735	0.130603	0.355147
0	H	0.692747	0.129685	0.196871
0	H	0.694305	0.888892	0.69866
0	H	0.359471	0.889265	0.85682
0	H	0.861059	0.630726	0.351404
0	H	0.19026	0.62871	0.201121
0	H	0.19123	0.388928	0.702503
0	H	0.862111	0.389923	0.852662
0	H	0.267376	0.252812	0.832455
0	H	0.784461	0.253542	0.723229
0	H	0.785202	0.766396	0.222297
0	H	0.268273	0.765769	0.331442
0	H	0.770374	0.75179	0.826107
0	H	0.281012	0.752736	0.729324
0	H	0.282104	0.267491	0.228502
0	H	0.771582	0.266438	0.32505
0	H	0.235656	0.176474	0.596395
0	H	0.814984	0.176507	0.959538
0	H	0.816602	0.842897	0.458301
0	H	0.237439	0.842676	0.0951907
0	H	0.740667	0.673343	0.5912
0	H	0.310395	0.67388	0.964228
0	H	0.311645	0.345991	0.463372
0	H	0.742176	0.34523	0.0901385
0	H	0.283213	0.0488553	0.607383
0	H	0.768064	0.0490485	0.947965
0	H	0.769145	0.970482	0.447286
0	H	0.284371	0.970185	0.106817
0	H	0.790061	0.546951	0.605439
0	H	0.262218	0.547229	0.95031
0	H	0.262398	0.472414	0.449302
0	H	0.79038	0.471905	0.104237
0	H	0.238626	0.939207	0.743244
0	H	0.811848	0.93964	0.80985
0	H	0.813375	0.0800833	0.310623
0	H	0.240147	0.0795913	0.244166
0	H	0.746917	0.437037	0.743548
0	H	0.30423	0.438001	0.808505
0	H	0.305207	0.582238	0.310348
0	H	0.748023	0.581159	0.245317
0	H	0.194667	0.00755314	0.849604
0	H	0.855624	0.00819818	0.703436
0	H	0.857222	0.0117061	0.204061
0	H	0.196335	0.0109906	0.350399
0	H	0.701982	0.505064	0.848395
0	H	0.348414	0.506524	0.702873
0	H	0.350004	0.514141	0.205291
0	H	0.703733	0.512649	0.350736
0	H	0.158608	0.225996	0.755597
0	H	0.892897	0.226498	0.803723
0	H	0.893874	0.793445	0.299662
0	H	0.159838	0.792448	0.251894
0	H	0.662099	0.721638	0.746326
0	H	0.389286	0.722969	0.811363
0	H	0.390372	0.297778	0.308821
0	H	0.663418	0.295989	0.243612
0	H	0.13583	0.128453	0.702526
0	H	0.915339	0.128574	0.855481
0	H	0.916494	0.891134	0.352602
0	H	0.137069	0.890135	0.199353
0	H	0.64129	0.622984	0.69691
0	H	0.410161	0.624064	0.859335
0	H	0.411057	0.396575	0.357842
0	H	0.642323	0.394681	0.19465
0	H	0.170151	0.146417	0.882217
0	H	0.881878	0.147582	0.675474
0	H	0.882378	0.8729	0.172831
0	H	0.170702	0.871711	0.379454
0	H	0.674657	0.643841	0.876338
0	H	0.377195	0.64576	0.679935
0	H	0.377795	0.375378	0.178437
0	H	0.675332	0.373612	0.374312
0	H	0.318659	0.0257148	0.986338
0	H	0.732772	0.0269639	0.56569
0	H	0.733765	0.993273	0.067391
0	H	0.319683	0.992531	0.488102
0	H	0.82336	0.525955	0.982126
0	H	0.227855	0.527264	0.569881
0	H	0.229043	0.493159	0.071636
0	H	0.824489	0.492004	0.484197
0	H	0.446173	0.986873	0.977346
0	H	0.605354	0.98907	0.571208
0	H	0.606264	0.0318906	0.0757648
0	H	0.447128	0.0308007	0.48201
0	H	0.95179	0.488869	0.975381
0	H	0.0996762	0.490733	0.57416
0	H	0.100654	0.530176	0.0780516
0	H	0.952693	0.528837	0.479541
0	H	0.49495	0.0623674	0.914212
0	H	0.556461	0.0643757	0.634244
0	H	0.557456	0.956504	0.138927
0	H	0.496024	0.955471	0.418899
0	H	0.999923	0.565469	0.913466
0	H	0.0514314	0.56699	0.636823
0	H	0.052499	0.453644	0.140029
0	H	0.00098363	0.452629	0.416878
0	H	0.465047	0.0682792	0.208958
0	H	0.587774	0.071894	0.340557
0	H	0.587595	0.950254	0.844347
0	H	0.46498	0.948177	0.712803
0	H	0.968951	0.570406	0.207556
0	H	0.0833501	0.573835	0.34344
0	H	0.0836062	0.448432	0.846035
0	H	0.96926	0.445882	0.710396
0	H	0.448453	0.17471	0.762247
0	H	0.602753	0.176351	0.78847
0	H	0.603923	0.8442	0.291222
0	H	0.449767	0.843408	0.265041
0	H	0.952902	0.676446	0.760712
0	H	0.0983328	0.677473	0.791951
0	H	0.0994706	0.342716	0.293076
0	H	0.954184	0.342006	0.262106
0	H	0.380762	0.0504392	0.770416
0	H	0.670015	0.0516447	0.780724
0	H	0.67155	0.968569	0.283184
0	H	0.382351	0.967945	0.272915
0	H	0.886193	0.551298	0.767894
0	H	0.164783	0.552148	0.783907
0	H	0.166161	0.467885	0.285886
0	H	0.887557	0.467175	0.270055
