#******************************************
#
# CIF file created by Zeo++
# Zeo++ is an open source package to
# analyze microporous materials
#
#*******************************************

_cell_length_a		8.70471(0)
_cell_length_b		27.6339(0)
_cell_length_c		9.17029(0)
_cell_angle_alpha		90(0)
_cell_angle_beta		90(0)
_cell_angle_gamma		90(0)

_symmetry_space_group_name_H-M		'P1'
_symmetry_Int_Tables_number		1
_symmetry_cell_setting		Monoclinic

loop_
_symmetry_equiv_pos_as_xyz
'+x,+y,+z'

loop_
_atom_site_label
_atom_site_type_symbol
_atom_site_fract_x
_atom_site_fract_y
_atom_site_fract_z
0	O	0.0498225	0.20977	0.991218
0	O	0.961313	0.798276	0.494637
0	O	0.550572	0.294971	0.989038
0	O	0.460761	0.715279	0.492575
0	O	0.0854601	0.13308	0.965227
0	O	0.924619	0.87493	0.469208
0	O	0.584767	0.371798	0.964961
0	O	0.424932	0.638482	0.469851
0	N	0.0122491	0.170259	0.943036
0	N	0.998433	0.837908	0.447006
0	N	0.512135	0.334582	0.942058
0	N	0.498457	0.675487	0.446553
0	C	0.87363	0.166978	0.85165
0	C	0.137326	0.841539	0.356077
0	C	0.373005	0.337876	0.8513
0	C	0.637776	0.671722	0.356147
0	C	0.814237	0.209257	0.789183
0	C	0.196657	0.799392	0.292498
0	C	0.313346	0.295625	0.78869
0	C	0.697525	0.713767	0.292351
0	H	0.866755	0.244515	0.813222
0	H	0.143942	0.764111	0.315584
0	H	0.366002	0.260368	0.812543
0	H	0.644953	0.749114	0.315125
0	C	0.688964	0.205815	0.693087
0	C	0.321983	0.803109	0.196584
0	C	0.187949	0.299057	0.692726
0	C	0.822932	0.709999	0.19652
0	C	0.61989	0.160484	0.668197
0	C	0.391221	0.848455	0.17294
0	C	0.118754	0.344401	0.668525
0	C	0.89201	0.664556	0.173623
0	H	0.520278	0.157249	0.595761
0	H	0.490989	0.851919	0.100842
0	H	0.0187706	0.347741	0.596541
0	H	0.992054	0.661001	0.101853
0	C	0.678217	0.118888	0.734982
0	C	0.333014	0.889891	0.240959
0	C	0.177246	0.386003	0.735478
0	C	0.833483	0.623195	0.241874
0	H	0.623419	0.0838145	0.71539
0	H	0.387975	0.924998	0.222385
0	H	0.122572	0.421074	0.715824
0	H	0.888101	0.588046	0.223257
0	C	0.80684	0.121509	0.825424
0	C	0.204349	0.887025	0.331299
0	C	0.306087	0.38335	0.825606
0	C	0.70465	0.626185	0.331967
0	H	0.855642	0.0888641	0.874797
0	H	0.155731	0.919543	0.381666
0	H	0.355133	0.415937	0.875126
0	H	0.655591	0.593765	0.382572
0	C	0.639846	0.249293	0.614958
0	C	0.370936	0.759795	0.117485
0	C	0.139263	0.255567	0.614158
0	C	0.871509	0.753289	0.116925
0	N	0.513654	0.251891	0.520192
0	N	0.495983	0.757419	0.0212849
0	N	0.0138218	0.253087	0.518499
0	N	0.995848	0.755524	0.0198636
0	H	0.43183	0.22599	0.506807
0	H	0.577665	0.783327	0.00750389
0	H	0.932873	0.279138	0.504143
0	H	0.0766245	0.729454	0.00521007
0	C	0.509257	0.298772	0.460581
0	C	0.499568	0.710688	0.960553
0	C	0.00869702	0.206188	0.459295
0	C	0.000108263	0.802252	0.95937
0	C	0.638247	0.323018	0.51856
0	C	0.371473	0.686271	0.0196864
0	C	0.137174	0.181788	0.517794
0	C	0.87253	0.826838	0.0190148
0	N	0.716767	0.292377	0.614348
0	N	0.294166	0.716693	0.116967
0	N	0.215581	0.212355	0.613937
0	N	0.795337	0.796522	0.116718
0	C	0.386356	0.315154	0.364723
0	C	0.621296	0.694454	0.86312
0	C	0.885268	0.189881	0.363928
0	C	0.122427	0.818354	0.862422
0	C	0.309638	0.283068	0.270744
0	C	0.697497	0.726645	0.769043
0	C	0.80828	0.221898	0.269801
0	C	0.198683	0.786268	0.768166
0	H	0.345148	0.245214	0.264186
0	H	0.662238	0.764545	0.763086
0	H	0.843077	0.259821	0.263272
0	H	0.163906	0.748324	0.762093
0	C	0.187893	0.298765	0.183738
0	C	0.818386	0.710911	0.681007
0	C	0.687236	0.205968	0.182465
0	C	0.319121	0.802181	0.679763
0	H	0.129897	0.273041	0.112109
0	H	0.876045	0.736623	0.609121
0	H	0.62885	0.231491	0.110386
0	H	0.376756	0.776625	0.607399
0	C	0.143816	0.347475	0.190498
0	C	0.862248	0.662179	0.686919
0	C	0.643598	0.157221	0.189687
0	C	0.362746	0.850908	0.686171
0	C	0.21994	0.380585	0.282858
0	C	0.786177	0.628968	0.778878
0	C	0.719771	0.124252	0.282355
0	C	0.286682	0.884014	0.778535
0	H	0.182457	0.4181	0.286441
0	H	0.823163	0.591326	0.781496
0	H	0.682612	0.0865641	0.286047
0	H	0.323351	0.921595	0.781433
0	C	0.340201	0.364143	0.369038
0	C	0.666677	0.645407	0.866099
0	C	0.839726	0.140882	0.36859
0	C	0.167642	0.867434	0.865859
0	H	0.399637	0.389328	0.441641
0	H	0.607413	0.620143	0.938552
0	H	0.899264	0.115806	0.441487
0	H	0.108374	0.892581	0.938649
0	O	0.0277777	0.368339	0.110667
0	O	0.977993	0.641351	0.606548
0	O	0.527735	0.136188	0.110003
0	O	0.47834	0.871838	0.60583
0	C	0.927955	0.336817	0.0265244
0	C	0.079795	0.673028	0.525122
0	C	0.427421	0.167599	0.0260623
0	C	0.58017	0.840167	0.524438
0	H	0.989469	0.323566	0.930535
0	H	0.0197957	0.686993	0.42916
0	H	0.488661	0.180882	0.929913
0	H	0.520191	0.82632	0.428332
0	H	0.833586	0.361314	0.996358
0	H	0.173905	0.648367	0.49484
0	H	0.33305	0.143003	0.996248
0	H	0.674653	0.864765	0.494565
0	H	0.884255	0.306954	0.0931824
0	H	0.123453	0.702372	0.593863
0	H	0.383792	0.197446	0.0927753
0	H	0.623366	0.810724	0.593026
0	C	0.700219	0.371114	0.488797
0	C	0.309294	0.6382	0.989953
0	C	0.19878	0.133622	0.488322
0	C	0.810791	0.874972	0.989472
0	C	0.750942	0.400174	0.604594
0	C	0.259356	0.609115	0.106132
0	C	0.249625	0.104695	0.604452
0	C	0.760874	0.904017	0.10589
0	H	0.734551	0.387947	0.716964
0	H	0.276705	0.62133	0.218306
0	H	0.233096	0.117028	0.716674
0	H	0.778563	0.89173	0.218022
0	C	0.822787	0.44453	0.578021
0	C	0.187214	0.564794	0.0799861
0	C	0.322061	0.0603961	0.578379
0	C	0.688345	0.948304	0.0800986
0	H	0.86125	0.466596	0.66903
0	H	0.149201	0.542736	0.171256
0	H	0.360747	0.0384442	0.669651
0	H	0.650132	0.970219	0.171449
0	C	0.842887	0.459458	0.433286
0	C	0.166404	0.549876	0.935407
0	C	0.341854	0.0454278	0.433698
0	C	0.667684	0.963217	0.935443
0	C	0.788983	0.431377	0.315267
0	C	0.219258	0.577956	0.817018
0	C	0.287181	0.0731717	0.315523
0	C	0.721236	0.935323	0.816997
0	H	0.804992	0.443957	0.204036
0	H	0.202585	0.565354	0.705898
0	H	0.30287	0.0603289	0.204279
0	H	0.704992	0.948167	0.705959
0	C	0.717863	0.38737	0.343916
0	C	0.290544	0.621959	0.845109
0	C	0.216058	0.117204	0.343645
0	C	0.792472	0.891336	0.844746
0	H	0.676283	0.36508	0.253638
0	H	0.331329	0.644236	0.754486
0	H	0.174207	0.139226	0.252842
0	H	0.833399	0.8693	0.753622
0	O	0.915728	0.501457	0.390582
0	O	0.0938586	0.50779	0.893002
0	O	0.415121	0.0035799	0.390244
0	O	0.594551	0.00507815	0.892092
0	C	0.973493	0.533038	0.504742
0	C	0.0371835	0.476089	0.00735758
0	C	0.477299	0.97268	0.503745
0	C	0.53289	0.0360952	0.00559638
0	H	0.0296994	0.562004	0.442974
0	H	0.981556	0.446991	0.945616
0	H	0.534957	0.944074	0.44106
0	H	0.475797	0.0647645	0.94293
0	H	0.0557965	0.513839	0.574033
0	H	0.954581	0.49511	0.0767996
0	H	0.559149	0.992586	0.571637
0	H	0.450669	0.0163072	0.0734318
0	H	0.877827	0.547691	0.568443
0	H	0.133328	0.461677	0.0708997
0	H	0.383742	0.957253	0.56875
0	H	0.626624	0.0513748	0.0706797
