#******************************************
#
# CIF file created by Zeo++
# Zeo++ is an open source package to
# analyze microporous materials
#
#*******************************************

_cell_length_a		12.7647(0)
_cell_length_b		23.09(0)
_cell_length_c		15.7413(0)
_cell_angle_alpha		90(0)
_cell_angle_beta		94.3814(0)
_cell_angle_gamma		90(0)

_symmetry_space_group_name_H-M		'P1'
_symmetry_Int_Tables_number		1
_symmetry_cell_setting		Monoclinic

loop_
_symmetry_equiv_pos_as_xyz
'+x,+y,+z'

loop_
_atom_site_label
_atom_site_type_symbol
_atom_site_fract_x
_atom_site_fract_y
_atom_site_fract_z
0	S	0.850268	0.2948	0.174981
0	S	0.662465	0.794112	0.327791
0	S	0.167151	0.705342	0.830462
0	S	0.355245	0.20574	0.677766
0	S	0.00901705	0.219228	0.417923
0	S	0.505272	0.719	0.0836506
0	S	0.00870971	0.780785	0.587372
0	S	0.512479	0.281049	0.921727
0	N	0.91611	0.114589	0.403431
0	N	0.598045	0.614484	0.100498
0	N	0.101497	0.885455	0.602006
0	N	0.419508	0.385502	0.905052
0	N	0.799363	0.196691	0.403583
0	N	0.715046	0.696317	0.100237
0	N	0.21834	0.803402	0.601807
0	N	0.302619	0.303618	0.90523
0	N	0.637607	0.143755	0.421721
0	N	0.876615	0.642959	0.0824785
0	N	0.380177	0.856449	0.583993
0	N	0.140974	0.356899	0.922968
0	N	0.6244	0.122261	0.229191
0	N	0.88903	0.621415	0.274764
0	N	0.393109	0.877867	0.776302
0	N	0.128655	0.378465	0.730646
0	N	0.765718	0.192244	0.223263
0	N	0.747977	0.691672	0.280544
0	N	0.251806	0.807859	0.78217
0	N	0.269706	0.308196	0.724924
0	N	0.657814	0.275959	0.230387
0	N	0.855429	0.775646	0.27309
0	N	0.359604	0.724114	0.774962
0	N	0.162245	0.224228	0.73241
0	C	0.973588	0.256563	0.200522
0	C	0.539382	0.755773	0.301636
0	C	0.0438083	0.743495	0.804677
0	C	0.478279	0.244174	0.703793
0	H	0.962919	0.217805	0.240746
0	H	0.550484	0.717139	0.261277
0	H	0.0545237	0.782231	0.764416
0	H	0.467167	0.282804	0.744156
0	H	0.00173302	0.239744	0.140005
0	H	0.511026	0.738765	0.361962
0	H	0.0154726	0.760342	0.865111
0	H	0.506525	0.261177	0.643424
0	C	0.0469362	0.299622	0.243434
0	C	0.465901	0.798791	0.258741
0	C	0.970626	0.70038	0.761717
0	C	0.551802	0.201155	0.746635
0	C	0.0429936	0.314787	0.330099
0	C	0.469873	0.814146	0.172145
0	C	0.974776	0.685184	0.675081
0	C	0.547998	0.185859	0.833267
0	C	0.116553	0.354485	0.366966
0	C	0.395958	0.853659	0.135294
0	C	0.901366	0.645439	0.63815
0	C	0.621904	0.146311	0.870049
0	H	0.114708	0.366228	0.43398
0	H	0.397663	0.865434	0.0682637
0	H	0.903399	0.633668	0.571161
0	H	0.620336	0.134571	0.937101
0	C	0.192474	0.379163	0.318922
0	C	0.319733	0.878065	0.183304
0	C	0.825316	0.620763	0.686063
0	C	0.697898	0.121803	0.821914
0	H	0.248798	0.4099	0.348561
0	H	0.263174	0.908681	0.153663
0	H	0.769094	0.590002	0.65636
0	H	0.754415	0.0911342	0.851483
0	C	0.195934	0.364422	0.233058
0	C	0.316226	0.863154	0.269098
0	C	0.821613	0.635551	0.771889
0	C	0.70121	0.136643	0.736073
0	H	0.255446	0.383258	0.195443
0	H	0.256412	0.881719	0.306677
0	H	0.761986	0.616731	0.809402
0	H	0.760814	0.117974	0.698386
0	C	0.123341	0.325095	0.195644
0	C	0.389106	0.823961	0.306464
0	C	0.894109	0.674904	0.809387
0	C	0.628351	0.175872	0.698779
0	H	0.126444	0.313624	0.128452
0	H	0.385913	0.812342	0.373581
0	H	0.890827	0.686399	0.876554
0	H	0.631368	0.187421	0.631617
0	C	0.96215	0.290755	0.384014
0	C	0.551123	0.790559	0.118215
0	C	0.0556477	0.709259	0.621229
0	C	0.466792	0.20945	0.887245
0	H	0.883006	0.288358	0.349464
0	H	0.630201	0.788372	0.152904
0	H	0.134765	0.711667	0.65583
0	H	0.38768	0.211579	0.852605
0	H	0.951727	0.3174	0.441432
0	H	0.561344	0.817432	0.0609801
0	H	0.0661351	0.682649	0.563792
0	H	0.456669	0.18258	0.944499
0	C	0.899953	0.169485	0.406952
0	C	0.614315	0.669338	0.0961988
0	C	0.117716	0.830564	0.598449
0	C	0.403308	0.330637	0.909293
0	C	0.709182	0.165198	0.363272
0	C	0.804853	0.664535	0.140672
0	C	0.308486	0.834886	0.642198
0	C	0.212776	0.335361	0.864772
0	C	0.697318	0.159568	0.276506
0	C	0.816321	0.658875	0.227416
0	C	0.32024	0.840533	0.72897
0	C	0.201333	0.341001	0.778022
0	C	0.745397	0.252584	0.21332
0	C	0.767913	0.752107	0.289986
0	C	0.272047	0.747511	0.792058
0	C	0.249767	0.247752	0.715508
0	C	0.0168495	0.0875232	0.403722
0	C	0.497251	0.587467	0.0997285
0	C	0.000663602	0.912438	0.601583
0	C	0.520271	0.412547	0.905668
0	C	0.058093	0.0615592	0.480081
0	C	0.457267	0.561057	0.0233332
0	C	0.959586	0.938403	0.525178
0	C	0.560509	0.438931	0.982013
0	H	0.0171647	0.0658158	0.538035
0	H	0.499354	0.564934	0.965887
0	H	0.000712099	0.934229	0.467314
0	H	0.518624	0.435019	0.0395572
0	C	0.151351	0.0300668	0.480758
0	C	0.363919	0.529633	0.0219723
0	C	0.866175	0.969774	0.524323
0	C	0.653816	0.470383	0.983173
0	H	0.183131	0.00971289	0.539873
0	H	0.333277	0.508906	0.96281
0	H	0.834498	0.990099	0.465157
0	H	0.684673	0.491089	0.0422927
0	C	0.203788	0.0243327	0.40629
0	C	0.310106	0.524424	0.0958187
0	C	0.813455	0.975415	0.598659
0	C	0.707308	0.475649	0.909167
0	H	0.277219	0.000335247	0.407421
0	H	0.23649	0.50059	0.0941173
0	H	0.739903	0.999309	0.597388
0	H	0.780882	0.499519	0.910706
0	C	0.162668	0.0503948	0.330846
0	C	0.350106	0.550805	0.171357
0	C	0.854438	0.949356	0.674153
0	C	0.667065	0.449297	0.833689
0	H	0.204069	0.0462531	0.273146
0	H	0.307669	0.546967	0.228567
0	H	0.812801	0.953416	0.731743
0	H	0.709243	0.453186	0.776349
0	C	0.0693788	0.082194	0.328869
0	C	0.443524	0.582542	0.174023
0	C	0.947836	0.917648	0.676302
0	C	0.573698	0.417527	0.831226
0	H	0.038138	0.103069	0.270329
0	H	0.473937	0.603634	0.232624
0	H	0.978949	0.89675	0.734863
0	H	0.543108	0.396452	0.772669
0	C	0.778294	0.231285	0.478033
0	C	0.737642	0.731074	0.0263669
0	C	0.239409	0.768807	0.527373
0	C	0.280003	0.268793	0.979021
0	C	0.706123	0.277071	0.466267
0	C	0.810358	0.776493	0.039658
0	C	0.311573	0.723016	0.539138
0	C	0.207282	0.22339	0.965636
0	H	0.664444	0.28431	0.403923
0	H	0.850521	0.783363	0.102703
0	H	0.353288	0.715786	0.601474
0	H	0.167163	0.216568	0.902565
0	C	0.686558	0.312449	0.535078
0	C	0.832693	0.811783	0.971522
0	C	0.331065	0.687606	0.470348
0	C	0.184884	0.188051	0.0336966
0	H	0.629672	0.347571	0.525879
0	H	0.89007	0.846562	0.981939
0	H	0.387911	0.652463	0.479555
0	H	0.127519	0.153278	0.0231994
0	C	0.73866	0.302936	0.615706
0	C	0.782791	0.802546	0.890015
0	C	0.278903	0.697084	0.389737
0	C	0.23471	0.197246	0.11525
0	C	0.810253	0.256892	0.626708
0	C	0.710653	0.756886	0.877489
0	C	0.207294	0.74312	0.378737
0	C	0.306854	0.242898	0.127884
0	H	0.850401	0.248853	0.689352
0	H	0.672471	0.74899	0.814054
0	H	0.167064	0.751116	0.316114
0	H	0.344968	0.250769	0.191351
0	C	0.829528	0.220699	0.558724
0	C	0.688499	0.720799	0.944886
0	C	0.188099	0.779353	0.446698
0	C	0.329109	0.279006	0.0605341
0	H	0.884239	0.184614	0.569308
0	H	0.633102	0.685087	0.933134
0	H	0.133329	0.81541	0.436108
0	H	0.384543	0.3147	0.0723606
0	C	0.717242	0.340274	0.689746
0	C	0.807107	0.839913	0.81677
0	C	0.300149	0.659684	0.315726
0	C	0.210275	0.159826	0.188403
0	H	0.672522	0.379356	0.670821
0	H	0.853061	0.878384	0.83675
0	H	0.344802	0.62058	0.334664
0	H	0.16467	0.121265	0.168289
0	H	0.789978	0.354153	0.726133
0	H	0.735417	0.854756	0.779843
0	H	0.227333	0.645824	0.279443
0	H	0.28189	0.145124	0.225573
0	H	0.671756	0.31647	0.735331
0	H	0.852532	0.81577	0.771508
0	H	0.345589	0.683423	0.270039
0	H	0.164419	0.183876	0.233473
0	C	0.529479	0.159174	0.414644
0	C	0.984544	0.65869	0.0889435
0	C	0.488145	0.840805	0.590626
0	C	0.0330308	0.34118	0.916349
0	C	0.494354	0.207293	0.364817
0	C	0.0196239	0.706881	0.138648
0	C	0.523349	0.792762	0.640596
0	C	0.998089	0.292957	0.866667
0	H	0.54914	0.232234	0.329465
0	H	0.964832	0.731684	0.174167
0	H	0.468647	0.767931	0.676174
0	H	0.0529752	0.268128	0.831278
0	C	0.389016	0.223499	0.361093
0	C	0.1248	0.723369	0.14194
0	C	0.628648	0.7765	0.644148
0	C	0.892912	0.276463	0.863199
0	H	0.362522	0.260407	0.321796
0	H	0.151214	0.760413	0.180932
0	H	0.655212	0.739649	0.683537
0	H	0.866626	0.239399	0.824203
0	C	0.317118	0.193009	0.406696
0	C	0.196666	0.693034	0.0961094
0	C	0.700415	0.806839	0.59821
0	C	0.820879	0.306815	0.908841
0	H	0.234978	0.205799	0.403442
0	H	0.278677	0.706052	0.0989676
0	H	0.782527	0.794009	0.601351
0	H	0.738866	0.293798	0.90584
0	C	0.352052	0.145895	0.456942
0	C	0.161842	0.645789	0.0460996
0	C	0.665372	0.85383	0.547751
0	C	0.855575	0.354083	0.958867
0	H	0.296426	0.122061	0.493063
0	H	0.217549	0.622035	0.00991258
0	H	0.72088	0.877524	0.511332
0	H	0.799743	0.377847	0.994922
0	C	0.456977	0.128553	0.461235
0	C	0.0570429	0.628222	0.0421285
0	C	0.560485	0.871229	0.54361
0	C	0.960377	0.371659	0.963001
0	H	0.481413	0.0915641	0.500527
0	H	0.0328143	0.591117	0.00302193
0	H	0.535955	0.908107	0.504128
0	H	0.984509	0.40878	0.00211842
0	C	0.672271	0.0917235	0.471825
0	C	0.84164	0.591411	0.0314596
0	C	0.345146	0.90804	0.533065
0	C	0.175806	0.40852	0.973893
0	H	0.753659	0.0796923	0.459925
0	H	0.759518	0.580082	0.0419763
0	H	0.263733	0.920072	0.544897
0	H	0.257838	0.419971	0.963249
0	H	0.622001	0.0538016	0.455057
0	H	0.890444	0.55302	0.0488313
0	H	0.395277	0.946115	0.549274
0	H	0.12677	0.44683	0.956564
0	H	0.669517	0.101145	0.540325
0	H	0.846307	0.600879	0.963146
0	H	0.347832	0.89819	0.464691
0	H	0.171322	0.399053	0.0422228
0	C	0.540228	0.152067	0.174816
0	C	0.973206	0.651542	0.3287
0	C	0.477344	0.848035	0.830587
0	C	0.0445653	0.348336	0.676631
0	H	0.503489	0.120652	0.128952
0	H	0.0109336	0.620404	0.374392
0	H	0.514153	0.87943	0.876449
0	H	0.006764	0.379486	0.630994
0	H	0.574336	0.187044	0.137873
0	H	0.938548	0.686248	0.365791
0	H	0.443271	0.813041	0.86752
0	H	0.0793016	0.313699	0.639461
0	H	0.479014	0.171647	0.211542
0	H	0.0336082	0.671562	0.291656
0	H	0.538487	0.828459	0.793786
0	H	0.984193	0.328227	0.713609
0	C	0.598116	0.0674646	0.265733
0	C	0.915533	0.566811	0.23767
0	C	0.419386	0.932621	0.739601
0	C	0.102064	0.433059	0.767725
0	C	0.493349	0.0491368	0.269066
0	C	0.0202831	0.548551	0.233954
0	C	0.524131	0.951009	0.736322
0	C	0.997286	0.451296	0.771349
0	H	0.428414	0.0780115	0.250325
0	H	0.0853363	0.577334	0.252847
0	H	0.589097	0.92221	0.755281
0	H	0.932274	0.422498	0.752424
0	C	0.472576	0.993461	0.298148
0	C	0.0409762	0.493032	0.204227
0	C	0.544817	0.00663017	0.706982
0	C	0.976516	0.506815	0.801042
0	H	0.391441	0.979102	0.299904
0	H	0.122112	0.478686	0.202249
0	H	0.625926	0.0210372	0.705222
0	H	0.895357	0.521136	0.80296
0	C	0.554658	0.956118	0.324797
0	C	0.958843	0.455792	0.177326
0	C	0.462665	0.0438631	0.680091
0	C	0.0586024	0.544084	0.827989
0	H	0.537776	0.912587	0.346651
0	H	0.975599	0.412342	0.155104
0	H	0.479483	0.0873512	0.658026
0	H	0.0417812	0.587534	0.850182
0	C	0.658792	0.974602	0.322152
0	C	0.854745	0.474237	0.180278
0	C	0.358564	0.0253385	0.682747
0	C	0.16272	0.525656	0.825131
0	H	0.722977	0.945196	0.342287
0	H	0.790431	0.444957	0.160013
0	H	0.294323	0.0546666	0.662455
0	H	0.226997	0.554955	0.845441
0	C	0.68124	0.0299022	0.293003
0	C	0.832362	0.529386	0.210026
0	C	0.336203	0.970074	0.712084
0	C	0.185181	0.470506	0.795435
0	H	0.76257	0.0441052	0.29104
0	H	0.751038	0.54358	0.212127
0	H	0.254896	0.955827	0.714003
0	H	0.266518	0.456322	0.793411
0	C	0.807611	0.161163	0.152912
0	C	0.707043	0.66076	0.351522
0	C	0.209817	0.838918	0.852502
0	C	0.310504	0.339077	0.653853
0	C	0.865061	0.110314	0.172157
0	C	0.648786	0.610085	0.332909
0	C	0.152322	0.889747	0.833261
0	C	0.368763	0.38977	0.672369
0	H	0.86852	0.0924415	0.23664
0	H	0.643366	0.592436	0.268272
0	H	0.148888	0.907633	0.768785
0	H	0.374287	0.40744	0.736995
0	C	0.916328	0.0825743	0.108358
0	C	0.599162	0.582263	0.397525
0	C	0.10095	0.91744	0.89705
0	C	0.418244	0.417582	0.607665
0	H	0.960948	0.0432097	0.123608
0	H	0.55388	0.543064	0.382798
0	H	0.0562558	0.956777	0.881801
0	H	0.463519	0.456798	0.622315
0	C	0.91084	0.10488	0.0252212
0	C	0.607254	0.604235	0.480903
0	C	0.106396	0.895097	0.980163
0	C	0.410037	0.395581	0.524309
0	C	0.849695	0.154451	0.00608578
0	C	0.668994	0.653685	0.499264
0	C	0.16757	0.845534	0.999296
0	C	0.348338	0.346105	0.506067
0	H	0.84345	0.172038	0.941499
0	H	0.677236	0.670956	0.563998
0	H	0.17375	0.827905	0.0638543
0	H	0.340022	0.328808	0.44135
0	C	0.796759	0.182134	0.0688339
0	C	0.720025	0.68158	0.435594
0	C	0.220585	0.817898	0.936557
0	C	0.29742	0.318221	0.569807
0	H	0.748389	0.219949	0.0516564
0	H	0.768638	0.719417	0.452076
0	H	0.268943	0.780074	0.953724
0	H	0.24884	0.280362	0.553408
0	C	0.967955	0.076186	0.957339
0	C	0.552359	0.575323	0.549862
0	C	0.0490973	0.92371	0.0480116
0	C	0.464766	0.424472	0.455235
0	H	0.0328548	0.0486399	0.983189
0	H	0.487117	0.547594	0.52516
0	H	0.984049	0.951137	0.0221237
0	H	0.529934	0.452296	0.479826
0	H	0.00218823	0.107845	0.914977
0	H	0.519023	0.606873	0.592902
0	H	0.0150057	0.891996	0.0903674
0	H	0.498165	0.392901	0.412261
0	H	0.914783	0.0487318	0.916545
0	H	0.606872	0.54803	0.589737
0	H	0.102106	0.951256	0.0888113
0	H	0.410122	0.451656	0.415309
0	C	0.633758	0.335963	0.235346
0	C	0.87924	0.835683	0.267771
0	C	0.383577	0.664101	0.769976
0	C	0.138298	0.164203	0.737603
0	C	0.539216	0.354517	0.191585
0	C	0.973519	0.854506	0.31173
0	C	0.478153	0.645524	0.813671
0	C	0.0439362	0.145525	0.693635
0	H	0.492611	0.324174	0.151116
0	H	0.0200502	0.82436	0.352474
0	H	0.524824	0.675862	0.854102
0	H	0.997452	0.175763	0.653017
0	C	0.506694	0.411734	0.200166
0	C	0.00585623	0.911729	0.302805
0	C	0.510607	0.588298	0.805077
0	C	0.0114474	0.0883113	0.702354
0	H	0.433852	0.426583	0.166288
0	H	0.0784002	0.926822	0.336882
0	H	0.58346	0.573424	0.838914
0	H	0.93884	0.0733388	0.668254
0	C	0.567342	0.450531	0.251409
0	C	0.945444	0.950258	0.250922
0	C	0.449891	0.549522	0.753864
0	C	0.0717783	0.0496419	0.754056
0	H	0.542098	0.495375	0.256375
0	H	0.970642	0.995095	0.245545
0	H	0.475089	0.504671	0.748873
0	H	0.046483	0.00481007	0.759249
0	C	0.660908	0.431911	0.294887
0	C	0.852181	0.931386	0.207269
0	C	0.356296	0.568159	0.710458
0	C	0.165104	0.0683847	0.797771
0	H	0.708755	0.462336	0.334207
0	H	0.80451	0.961609	0.167461
0	H	0.308395	0.537745	0.671172
0	H	0.212699	0.03806	0.837464
0	C	0.694682	0.37476	0.287437
0	C	0.818494	0.874246	0.21515
0	C	0.322561	0.625316	0.717946
0	C	0.198953	0.125509	0.790075
0	H	0.76789	0.360662	0.321214
0	H	0.745524	0.859988	0.181183
0	H	0.249311	0.639418	0.684244
0	H	0.271974	0.139663	0.824078
