#******************************************
#
# CIF file created by Zeo++
# Zeo++ is an open source package to
# analyze microporous materials
#
#*******************************************

_cell_length_a		15.1528(0)
_cell_length_b		20.8167(0)
_cell_length_c		24.2915(0)
_cell_angle_alpha		93.3095(0)
_cell_angle_beta		89.7294(0)
_cell_angle_gamma		94.0501(0)

_symmetry_space_group_name_H-M		'P1'
_symmetry_Int_Tables_number		1
_symmetry_cell_setting		Triclinic

loop_
_symmetry_equiv_pos_as_xyz
'+x,+y,+z'

loop_
_atom_site_label
_atom_site_type_symbol
_atom_site_fract_x
_atom_site_fract_y
_atom_site_fract_z
0	N	0.772236	0.0262202	0.540955
0	N	0.0912266	0.911409	0.390026
0	N	0.83051	0.920493	0.567709
0	N	0.0327549	0.0169624	0.363014
0	N	0.178843	0.106291	0.674651
0	N	0.684686	0.831014	0.25628
0	N	0.581955	0.912346	0.799588
0	N	0.280868	0.025179	0.131114
0	N	0.330411	0.522934	0.854839
0	N	0.532863	0.414859	0.0758646
0	N	0.275948	0.407673	0.875423
0	N	0.587422	0.530186	0.055485
0	N	0.0470222	0.526842	0.637542
0	N	0.81586	0.410595	0.29339
0	N	0.651025	0.349661	0.729273
0	N	0.211932	0.587987	0.201279
0	C	0.70717	0.11927	0.593019
0	C	0.156612	0.81835	0.338164
0	H	0.76211	0.129059	0.622626
0	H	0.101856	0.808548	0.30843
0	H	0.653843	0.0920177	0.614762
0	H	0.210072	0.845601	0.316528
0	H	0.682877	0.166334	0.584544
0	H	0.180845	0.771291	0.346718
0	C	0.733995	0.0833901	0.542266
0	C	0.129482	0.854249	0.388837
0	C	0.724257	0.101817	0.486507
0	C	0.138926	0.835874	0.444633
0	H	0.695989	0.14536	0.47517
0	H	0.167103	0.792334	0.456064
0	C	0.756959	0.0544206	0.451004
0	C	0.10599	0.883284	0.480026
0	C	0.759418	0.0523122	0.390319
0	C	0.103127	0.885389	0.540704
0	H	0.761539	0.101151	0.37442
0	H	0.100823	0.836538	0.556586
0	H	0.699788	0.0254089	0.37251
0	H	0.162673	0.91225	0.558668
0	H	0.817486	0.0292686	0.373162
0	H	0.0449678	0.908455	0.5577
0	C	0.787989	0.0053307	0.484676
0	C	0.0751404	0.932341	0.446251
0	C	0.823375	0.946868	0.470341
0	C	0.0395927	0.990784	0.460444
0	H	0.835137	0.9337	0.426637
0	H	0.0276049	0.00400773	0.50411
0	C	0.843646	0.904873	0.51005
0	C	0.0193955	0.0326795	0.420633
0	C	0.876258	0.840852	0.50579
0	C	0.986506	0.0966155	0.424728
0	C	0.898192	0.805129	0.453992
0	C	0.96428	0.132426	0.476426
0	H	0.838545	0.779689	0.434891
0	H	0.0237181	0.158279	0.495427
0	H	0.94552	0.768282	0.460833
0	H	0.916476	0.16893	0.469468
0	H	0.928732	0.836775	0.423365
0	H	0.934134	0.100767	0.507172
0	C	0.881619	0.820269	0.558918
0	C	0.981142	0.117026	0.371541
0	H	0.90237	0.775013	0.571442
0	H	0.96018	0.162171	0.358897
0	C	0.853358	0.8705	0.596885
0	C	0.0096933	0.0667807	0.3337
0	C	0.849361	0.868528	0.657432
0	C	0.0137546	0.0686039	0.273143
0	H	0.874429	0.914215	0.678754
0	H	0.98949	0.0226812	0.251885
0	H	0.888099	0.829969	0.67226
0	H	0.974364	0.106726	0.258181
0	H	0.780679	0.858436	0.671575
0	H	0.0823413	0.0792726	0.259055
0	C	0.88359	0.0239996	0.619411
0	C	0.979936	0.913294	0.311495
0	C	0.947814	0.048075	0.64421
0	C	0.915722	0.889184	0.286731
0	C	0.104536	0.0857657	0.646231
0	C	0.758997	0.851515	0.284712
0	H	0.109598	0.0780285	0.60095
0	H	0.75393	0.859265	0.329994
0	C	0.023304	0.0737329	0.674002
0	C	0.840234	0.863512	0.256942
0	C	0.0206259	0.0854145	0.731715
0	C	0.842939	0.851809	0.199231
0	H	0.958096	0.0772842	0.753662
0	H	0.905477	0.859909	0.177288
0	C	0.0975218	0.106818	0.760554
0	C	0.766049	0.83044	0.170393
0	H	0.0965377	0.115396	0.805299
0	H	0.76704	0.821852	0.125649
0	C	0.177099	0.116674	0.731635
0	C	0.686451	0.820636	0.199299
0	C	0.265732	0.137039	0.752237
0	C	0.597813	0.800354	0.178677
0	C	0.293423	0.147763	0.807048
0	C	0.570158	0.789709	0.123856
0	H	0.246832	0.141326	0.840885
0	H	0.616773	0.796126	0.0900291
0	C	0.382336	0.166483	0.817557
0	C	0.481226	0.771104	0.11331
0	H	0.405422	0.175199	0.859858
0	H	0.458179	0.762458	0.0709997
0	C	0.442541	0.173775	0.773855
0	C	0.42096	0.763834	0.156981
0	H	0.512006	0.188081	0.782928
0	H	0.351483	0.749621	0.147877
0	C	0.41471	0.162808	0.719139
0	C	0.448766	0.774716	0.211712
0	H	0.461633	0.168261	0.685235
0	H	0.401791	0.769288	0.245589
0	C	0.326112	0.144871	0.707932
0	C	0.537384	0.792546	0.222959
0	C	0.257424	0.178487	0.607886
0	C	0.606071	0.758817	0.322996
0	C	0.262354	0.244404	0.6247
0	C	0.601091	0.692912	0.306153
0	C	0.251805	0.291485	0.586374
0	C	0.611754	0.645796	0.344429
0	H	0.257142	0.342191	0.600107
0	H	0.606378	0.595096	0.330677
0	C	0.233521	0.273751	0.531064
0	C	0.630193	0.663502	0.399731
0	C	0.224005	0.208117	0.514635
0	C	0.63975	0.729126	0.416194
0	H	0.20841	0.193644	0.471855
0	H	0.655462	0.743573	0.458966
0	C	0.235017	0.160692	0.552525
0	C	0.628598	0.776573	0.378346
0	C	0.27688	0.269759	0.683111
0	C	0.586367	0.667602	0.247748
0	H	0.265112	0.321172	0.689122
0	H	0.597951	0.616161	0.2417
0	H	0.345143	0.264848	0.696536
0	H	0.5181	0.672635	0.23439
0	H	0.232162	0.244138	0.711442
0	H	0.631088	0.693166	0.219385
0	C	0.22436	0.323941	0.490207
0	C	0.639359	0.613257	0.440535
0	H	0.170242	0.310436	0.460913
0	H	0.692844	0.627015	0.470222
0	H	0.285293	0.330738	0.465821
0	H	0.578055	0.605921	0.464477
0	H	0.211419	0.37145	0.50987
0	H	0.653206	0.565939	0.420855
0	C	0.221898	0.0924217	0.529244
0	C	0.641642	0.844831	0.401671
0	H	0.178014	0.0876423	0.493175
0	H	0.68555	0.849617	0.437731
0	H	0.195132	0.0586586	0.559246
0	H	0.668321	0.878637	0.371679
0	H	0.285615	0.0745375	0.515332
0	H	0.577889	0.862635	0.415614
0	C	0.326162	0.0637277	0.625373
0	C	0.537371	0.873603	0.305562
0	C	0.399624	0.0774721	0.590962
0	C	0.463899	0.85986	0.339963
0	C	0.441728	0.0271689	0.562982
0	C	0.421739	0.910169	0.3679
0	H	0.496714	0.038369	0.535383
0	H	0.366706	0.898978	0.395468
0	C	0.413349	0.962679	0.569759
0	C	0.450094	0.974655	0.361084
0	C	0.345846	0.94905	0.607619
0	C	0.517621	0.988279	0.323233
0	H	0.325969	0.899141	0.615125
0	H	0.537461	0.0381826	0.315688
0	C	0.303875	0.999116	0.636401
0	C	0.559617	0.938203	0.294486
0	C	0.437686	0.144388	0.581472
0	C	0.425859	0.792939	0.349443
0	H	0.508726	0.145539	0.572418
0	H	0.354859	0.791798	0.358618
0	H	0.428657	0.178403	0.617151
0	H	0.434726	0.758978	0.313705
0	H	0.405091	0.163933	0.54627
0	H	0.458587	0.773316	0.384559
0	C	0.455257	0.909257	0.537909
0	C	0.408031	0.0280851	0.39283
0	H	0.494903	0.92638	0.502968
0	H	0.368001	0.0109464	0.427607
0	H	0.4054	0.87264	0.520882
0	H	0.457818	0.064632	0.410062
0	H	0.499594	0.884895	0.56432
0	H	0.364002	0.0525336	0.36628
0	C	0.238686	0.977928	0.679541
0	C	0.624748	0.959352	0.2513
0	H	0.247164	0.928108	0.690359
0	H	0.616253	0.00915061	0.240447
0	H	0.170108	0.978589	0.665639
0	H	0.693343	0.958704	0.265169
0	H	0.247576	0.0077595	0.718131
0	H	0.6158	0.929489	0.212733
0	C	0.726492	0.978946	0.633385
0	C	0.136933	0.958498	0.297503
0	C	0.672761	0.971742	0.669886
0	C	0.19042	0.965733	0.26088
0	C	0.636682	0.923002	0.756342
0	C	0.226226	0.0145295	0.174399
0	H	0.700483	0.900406	0.755354
0	H	0.162428	0.0371326	0.175447
0	C	0.612638	0.961839	0.713731
0	C	0.250382	0.975654	0.216958
0	C	0.530168	0.989122	0.716707
0	C	0.332817	0.948331	0.213904
0	H	0.509225	0.0179604	0.683441
0	H	0.35379	0.919436	0.247119
0	C	0.474832	0.97849	0.761788
0	C	0.388058	0.958979	0.168786
0	H	0.411077	0.999806	0.764753
0	H	0.451784	0.937633	0.165737
0	C	0.500992	0.93964	0.803183
0	C	0.361808	0.997861	0.127442
0	C	0.453923	0.91957	0.852706
0	C	0.408762	0.0178958	0.0778745
0	C	0.375309	0.941498	0.874611
0	C	0.487336	0.995935	0.0559425
0	H	0.341323	0.978425	0.854987
0	H	0.521362	0.95905	0.0755958
0	C	0.341401	0.915327	0.922673
0	C	0.521107	0.0219886	0.00779961
0	H	0.280878	0.932461	0.940981
0	H	0.581584	0.00482194	0.989458
0	C	0.385562	0.867978	0.948091
0	C	0.476825	0.0692391	0.982334
0	H	0.357974	0.848201	0.985668
0	H	0.504265	0.0888935	0.944669
0	C	0.464472	0.846225	0.92628
0	C	0.39796	0.0910328	0.00418607
0	H	0.499057	0.810132	0.946633
0	H	0.363288	0.127029	0.983771
0	C	0.499205	0.872213	0.878688
0	C	0.363379	0.0651813	0.0518733
0	C	0.606193	0.797166	0.811492
0	C	0.256494	0.140325	0.119147
0	C	0.534692	0.755151	0.79267
0	C	0.328073	0.182335	0.137883
0	C	0.549846	0.696038	0.764201
0	C	0.313048	0.241459	0.166363
0	H	0.493524	0.662891	0.751522
0	H	0.36942	0.274591	0.178977
0	C	0.635685	0.679616	0.751787
0	C	0.227246	0.257919	0.17887
0	C	0.706824	0.723534	0.766967
0	C	0.156046	0.214032	0.163774
0	H	0.774171	0.712075	0.755651
0	H	0.0887415	0.225514	0.175171
0	C	0.692523	0.781945	0.796319
0	C	0.170215	0.155606	0.13439
0	C	0.439694	0.769507	0.799576
0	C	0.42302	0.167923	0.130836
0	H	0.417496	0.764911	0.842513
0	H	0.444952	0.172246	0.0878237
0	H	0.39516	0.736917	0.773525
0	H	0.467718	0.200639	0.156673
0	H	0.428051	0.8185	0.788258
0	H	0.43468	0.118992	0.142323
0	C	0.652839	0.61672	0.722264
0	C	0.210317	0.320851	0.208422
0	H	0.685216	0.624551	0.682103
0	H	0.179386	0.31311	0.249
0	H	0.59258	0.585316	0.714398
0	H	0.270523	0.352577	0.215435
0	H	0.69789	0.589867	0.746335
0	H	0.164178	0.347327	0.18483
0	C	0.773523	0.825422	0.809643
0	C	0.0891381	0.11221	0.121099
0	H	0.829021	0.815679	0.781462
0	H	0.0334896	0.122271	0.149071
0	H	0.796913	0.818643	0.851666
0	H	0.0660404	0.11873	0.0789607
0	H	0.762244	0.876852	0.808292
0	H	0.100206	0.0607771	0.122749
0	C	0.664857	0.884564	0.894545
0	C	0.197752	0.0528016	0.036193
0	C	0.691019	0.836791	0.928881
0	C	0.171577	0.100533	0.00182221
0	C	0.754653	0.852274	0.9704
0	C	0.107928	0.0850126	0.96033
0	H	0.775649	0.814681	0.995578
0	H	0.0869084	0.122571	0.935125
0	C	0.79183	0.915451	0.979515
0	C	0.0707849	0.0218198	0.951257
0	C	0.762538	0.963379	0.947567
0	C	0.100129	0.973915	0.983209
0	H	0.788953	0.0129801	0.955108
0	H	0.0737724	0.924299	0.975679
0	C	0.698768	0.948435	0.905984
0	C	0.163907	0.988913	0.0247863
0	C	0.655811	0.767565	0.923776
0	C	0.206821	0.169759	0.00686473
0	H	0.586844	0.762109	0.909664
0	H	0.275687	0.175248	0.0211668
0	H	0.658914	0.743583	0.962785
0	H	0.204023	0.193603	0.967778
0	H	0.69434	0.739995	0.893248
0	H	0.168104	0.197423	0.0372214
0	C	0.860503	0.932009	0.0231328
0	C	0.00210703	0.00523293	0.907653
0	H	0.91717	0.961753	0.0073934
0	H	0.945658	0.975215	0.923318
0	H	0.887352	0.889259	0.0391307
0	H	0.974914	0.0479574	0.89184
0	H	0.833082	0.959915	0.0581273
0	H	0.0296447	0.977609	0.872535
0	C	0.669807	0.00499963	0.876905
0	C	0.192981	0.932377	0.053861
0	H	0.694677	0.0511685	0.897472
0	H	0.168135	0.886192	0.0333188
0	H	0.597333	0.00547367	0.876491
0	H	0.265462	0.931949	0.0542294
0	H	0.694668	0.00529631	0.834487
0	H	0.16819	0.932086	0.0962939
0	C	0.224469	0.307465	0.818425
0	C	0.638986	0.630276	0.112614
0	H	0.177058	0.265929	0.824431
0	H	0.686932	0.671529	0.106719
0	H	0.284807	0.28799	0.800027
0	H	0.578776	0.650181	0.130796
0	H	0.195922	0.336652	0.787375
0	H	0.666882	0.600893	0.143764
0	C	0.245484	0.344653	0.8708
0	C	0.617943	0.593192	0.0601983
0	C	0.239344	0.32004	0.925057
0	C	0.624135	0.617924	0.00598364
0	H	0.216798	0.271516	0.933632
0	H	0.646727	0.666467	0.997477
0	C	0.267116	0.369579	0.963148
0	C	0.596354	0.568471	0.967823
0	C	0.272079	0.366855	0.0234948
0	C	0.591457	0.571282	0.907482
0	H	0.268534	0.316818	0.0365942
0	H	0.595975	0.621324	0.894386
0	H	0.216722	0.390131	0.0440294
0	H	0.646248	0.547381	0.886894
0	H	0.33408	0.390383	0.04084
0	H	0.529035	0.54839	0.890188
0	C	0.291176	0.426036	0.932569
0	C	0.572211	0.511955	0.998313
0	C	0.321904	0.488218	0.950251
0	C	0.541443	0.449829	0.980529
0	H	0.332028	0.500009	0.99447
0	H	0.531323	0.438152	0.936294
0	C	0.340162	0.535651	0.913264
0	C	0.523141	0.402293	0.01742
0	C	0.369054	0.603482	0.921964
0	C	0.494242	0.334486	0.00858128
0	C	0.387357	0.637332	0.975967
0	C	0.475957	0.300791	0.954515
0	H	0.416633	0.686808	0.972092
0	H	0.447211	0.251156	0.958284
0	H	0.433705	0.612385	0.000704133
0	H	0.429152	0.325589	0.929989
0	H	0.326365	0.641463	0.000707195
0	H	0.53684	0.29709	0.929605
0	C	0.375635	0.628999	0.870544
0	C	0.487626	0.308815	0.059939
0	H	0.395446	0.677967	0.861761
0	H	0.467813	0.259821	0.0686178
0	C	0.35177	0.578207	0.829282
0	C	0.511479	0.359507	0.101298
0	C	0.351412	0.585264	0.769214
0	C	0.511757	0.352239	0.161339
0	H	0.351473	0.53908	0.74473
0	H	0.51209	0.398361	0.185942
0	H	0.410447	0.615738	0.756456
0	H	0.452486	0.321964	0.174021
0	H	0.292515	0.609025	0.756637
0	H	0.570406	0.328133	0.173839
0	C	0.3755	0.427441	0.792989
0	C	0.487719	0.510278	0.137807
0	C	0.431966	0.405559	0.76355
0	C	0.431077	0.532138	0.167118
0	C	0.58277	0.373805	0.757653
0	C	0.280189	0.563807	0.172928
0	H	0.592739	0.388629	0.801752
0	H	0.270197	0.548877	0.12885
0	C	0.500834	0.38025	0.731522
0	C	0.362145	0.557469	0.19908
0	C	0.491943	0.361221	0.675159
0	C	0.371052	0.576667	0.255414
0	H	0.428988	0.365444	0.654302
0	H	0.434025	0.572535	0.276277
0	C	0.563216	0.33674	0.646175
0	C	0.299762	0.601176	0.284368
0	H	0.5572	0.322369	0.602007
0	H	0.305796	0.61566	0.328499
0	C	0.642882	0.330578	0.673658
0	C	0.220069	0.607198	0.256872
0	C	0.725502	0.305178	0.653554
0	C	0.137391	0.632545	0.276937
0	C	0.74927	0.288324	0.59926
0	C	0.113624	0.649489	0.331218
0	H	0.704537	0.293479	0.564973
0	H	0.1584	0.644439	0.365511
0	C	0.83265	0.265232	0.589424
0	C	0.0301884	0.672508	0.341025
0	H	0.852731	0.252513	0.547362
0	H	0.0100877	0.685294	0.383071
0	C	0.89062	0.258678	0.63328
0	C	0.972195	0.678918	0.297157
0	H	0.955042	0.240126	0.624839
0	H	0.907729	0.697411	0.305573
0	C	0.867199	0.276425	0.687517
0	C	0.995628	0.661102	0.242937
0	H	0.912663	0.272102	0.721595
0	H	0.950148	0.665328	0.208859
0	C	0.785107	0.300535	0.697872
0	C	0.077758	0.63704	0.232614
0	C	0.81213	0.396932	0.766364
0	C	0.0508375	0.540532	0.16426
0	C	0.80408	0.457163	0.744397
0	C	0.0590198	0.480339	0.186272
0	C	0.857857	0.511487	0.76408
0	C	0.00518816	0.425981	0.166741
0	H	0.84888	0.558424	0.74823
0	H	0.0142504	0.379072	0.182623
0	C	0.9237	0.505866	0.803149
0	C	0.939184	0.431516	0.127764
0	C	0.937808	0.444587	0.820875
0	C	0.924986	0.492745	0.109967
0	H	0.991189	0.439185	0.849652
0	H	0.8715	0.498073	0.0812501
0	C	0.883931	0.390212	0.801873
0	C	0.978925	0.547165	0.128821
0	C	0.9086	0.326754	0.821175
0	C	0.954195	0.610545	0.10939
0	H	0.889345	0.286119	0.791685
0	H	0.973703	0.651302	0.138704
0	H	0.875297	0.316074	0.860343
0	H	0.987231	0.621007	0.0700902
0	H	0.979891	0.326283	0.828466
0	H	0.882855	0.611033	0.102287
0	C	0.743672	0.468244	0.697671
0	C	0.119699	0.469334	0.232886
0	H	0.746466	0.430257	0.664532
0	H	0.116925	0.507296	0.266048
0	H	0.763773	0.513459	0.677951
0	H	0.0998837	0.424075	0.252599
0	H	0.674959	0.471746	0.710933
0	H	0.188365	0.465959	0.219484
0	C	0.979685	0.563793	0.824707
0	C	0.883098	0.373568	0.106367
0	H	0.0500345	0.554229	0.825693
0	H	0.812607	0.38286	0.106349
0	H	0.960273	0.578481	0.866955
0	H	0.901303	0.359433	0.0637739
0	H	0.974367	0.605608	0.799612
0	H	0.889567	0.331485	0.130971
0	C	0.718585	0.292827	0.805248
0	C	0.144269	0.644619	0.125226
0	C	0.707995	0.324188	0.85764
0	C	0.154831	0.613195	0.0728592
0	C	0.693724	0.288017	0.904399
0	C	0.169098	0.649296	0.0260587
0	H	0.689774	0.31284	0.944919
0	H	0.173029	0.624424	0.985559
0	C	0.685753	0.220605	0.899605
0	C	0.177085	0.716714	0.0307928
0	C	0.689608	0.189561	0.847159
0	C	0.173255	0.747826	0.0832118
0	H	0.68085	0.13726	0.842656
0	H	0.182031	0.800131	0.0876727
0	C	0.705313	0.225243	0.80016
0	C	0.157555	0.712203	0.130247
0	C	0.710532	0.395922	0.868542
0	C	0.152275	0.54145	0.0620303
0	H	0.670506	0.410013	0.904371
0	H	0.191967	0.527305	0.0260641
0	H	0.688478	0.42149	0.833342
0	H	0.17469	0.515953	0.097175
0	H	0.778807	0.415862	0.877303
0	H	0.0839429	0.521476	0.05352
0	C	0.673228	0.182432	0.94972
0	C	0.189517	0.754781	0.98061
0	H	0.652199	0.211737	0.985874
0	H	0.211824	0.725649	0.944704
0	H	0.7357	0.162505	0.960782
0	H	0.126651	0.773776	0.96905
0	H	0.623598	0.141591	0.943386
0	H	0.238096	0.796255	0.987111
0	C	0.705239	0.186737	0.746112
0	C	0.157638	0.750783	0.184263
0	H	0.677445	0.136932	0.749556
0	H	0.185516	0.800562	0.180781
0	H	0.772892	0.183759	0.730036
0	H	0.0899725	0.753829	0.200302
0	H	0.666297	0.207768	0.714643
0	H	0.196513	0.729757	0.215768
0	C	0.220353	0.460699	0.789341
0	C	0.64284	0.47695	0.141522
0	C	0.165201	0.465965	0.754373
0	C	0.697913	0.471609	0.176521
0	C	0.105703	0.523662	0.67917
0	C	0.757215	0.41384	0.251755
0	H	0.156923	0.563766	0.685769
0	H	0.705954	0.373777	0.245132
0	C	0.101266	0.470381	0.71278
0	C	0.761774	0.467131	0.218154
0	C	0.0331248	0.421197	0.703499
0	C	0.829951	0.516286	0.227492
0	H	0.0270027	0.380702	0.730363
0	H	0.836175	0.556771	0.200625
0	C	0.973036	0.425111	0.660882
0	C	0.889953	0.512335	0.270154
0	H	0.918837	0.388008	0.65368
0	H	0.944152	0.549434	0.277415
0	C	0.980873	0.478058	0.627695
0	C	0.882046	0.459346	0.303294
0	C	0.927331	0.491596	0.580439
0	C	0.935583	0.445691	0.350521
0	C	0.860733	0.451326	0.554171
0	C	0.00216201	0.485916	0.376869
0	H	0.84184	0.403913	0.568983
0	H	0.0209795	0.533399	0.362178
0	C	0.819607	0.472979	0.508058
0	C	0.0433765	0.4641	0.422882
0	H	0.768247	0.442044	0.486413
0	H	0.0947134	0.494995	0.444594
0	C	0.845628	0.533613	0.488662
0	C	0.017488	0.403349	0.442091
0	H	0.813962	0.549334	0.452033
0	H	0.0492689	0.387478	0.478622
0	C	0.912161	0.573936	0.515168
0	C	0.950942	0.363106	0.415534
0	H	0.932583	0.620425	0.49913
0	H	0.930617	0.316529	0.431432
0	C	0.952878	0.553305	0.561519
0	C	0.910098	0.383904	0.369295
0	C	0.11182	0.598634	0.552871
0	C	0.751128	0.338798	0.378071
0	C	0.172399	0.553825	0.5349
0	C	0.690695	0.383691	0.396115
0	C	0.238933	0.570386	0.496503
0	C	0.624235	0.367222	0.43458
0	H	0.286803	0.535782	0.484223
0	H	0.576475	0.401888	0.446919
0	C	0.244129	0.630855	0.474041
0	C	0.618937	0.30674	0.457022
0	C	0.180506	0.674068	0.489118
0	C	0.682423	0.263443	0.441891
0	H	0.182627	0.721146	0.471219
0	H	0.680241	0.216364	0.459793
0	C	0.113952	0.658074	0.527528
0	C	0.748897	0.279346	0.403396
0	C	0.169853	0.486213	0.553326
0	C	0.693273	0.451281	0.377646
0	H	0.102029	0.463656	0.552519
0	H	0.761105	0.473823	0.378428
0	H	0.196802	0.484621	0.594974
0	H	0.666293	0.45284	0.336005
0	H	0.20884	0.454508	0.526329
0	H	0.654309	0.483025	0.404629
0	C	0.316246	0.648815	0.434233
0	C	0.546798	0.288864	0.496838
0	H	0.314564	0.698665	0.421955
0	H	0.547438	0.23866	0.508381
0	H	0.312352	0.616934	0.396309
0	H	0.551749	0.320049	0.53517
0	H	0.381879	0.644884	0.452482
0	H	0.481178	0.293982	0.47901
0	C	0.0487646	0.708171	0.538716
0	C	0.813876	0.229128	0.392107
0	H	0.0305285	0.730757	0.500914
0	H	0.832322	0.206573	0.429891
0	H	0.0764992	0.746971	0.567712
0	H	0.78587	0.190307	0.36323
0	H	0.986809	0.688855	0.557233
0	H	0.875748	0.248321	0.373408
0	C	0.0218821	0.643994	0.642577
0	C	0.840786	0.293394	0.288217
0	C	0.0967193	0.680673	0.664458
0	C	0.765891	0.256751	0.266392
0	C	0.0867967	0.732002	0.703614
0	C	0.775688	0.205424	0.22721
0	H	0.144845	0.760608	0.719591
0	H	0.717585	0.176845	0.21129
0	C	0.00293765	0.746482	0.722804
0	C	0.859482	0.190925	0.207925
0	C	0.928784	0.709105	0.70253
0	C	0.933703	0.2283	0.228123
0	H	0.862977	0.71847	0.718326
0	H	0.999458	0.218931	0.212249
0	C	0.93775	0.658283	0.662455
0	C	0.924853	0.279114	0.268219
0	C	0.853633	0.621981	0.643533
0	C	0.00904494	0.315423	0.287021
0	H	0.794616	0.639626	0.664504
0	H	0.0679113	0.297904	0.265821
0	H	0.853879	0.570263	0.65092
0	H	0.0086292	0.367167	0.279814
0	H	0.842729	0.625934	0.599206
0	H	0.0202674	0.311281	0.331293
0	C	0.190498	0.669303	0.648912
0	C	0.672164	0.268181	0.282029
0	H	0.208621	0.691959	0.61013
0	H	0.654033	0.245355	0.320732
0	H	0.201725	0.617869	0.641892
0	H	0.661077	0.319615	0.289237
0	H	0.238001	0.689708	0.680276
0	H	0.624586	0.24799	0.250633
0	C	0.995294	0.801263	0.764758
0	C	0.867102	0.136141	0.165976
0	H	0.925962	0.809432	0.775522
0	H	0.936415	0.128272	0.15492
0	H	0.0259405	0.846502	0.750149
0	H	0.837033	0.0908163	0.180754
0	H	0.0287732	0.7921	0.803299
0	H	0.833084	0.145061	0.127568
0	B	0.801458	0.987595	0.589614
0	B	0.0619827	0.949854	0.341276
0	B	0.275172	0.124166	0.650631
0	B	0.588327	0.813165	0.28028
0	B	0.592135	0.863358	0.847305
0	B	0.270537	0.0740969	0.0833696
0	B	0.299474	0.454815	0.829196
0	B	0.563799	0.482933	0.101629
0	B	0.744807	0.334444	0.752929
0	B	0.118103	0.603076	0.177598
0	B	0.0355527	0.584835	0.598079
0	B	0.827295	0.352523	0.332779
