#******************************************
#
# CIF file created by Zeo++
# Zeo++ is an open source package to
# analyze microporous materials
#
#*******************************************

_cell_length_a		19.8007(0)
_cell_length_b		20.1272(0)
_cell_length_c		13.7089(0)
_cell_angle_alpha		90(0)
_cell_angle_beta		90(0)
_cell_angle_gamma		90(0)

_symmetry_space_group_name_H-M		'P1'
_symmetry_Int_Tables_number		1
_symmetry_cell_setting		Monoclinic

loop_
_symmetry_equiv_pos_as_xyz
'+x,+y,+z'

loop_
_atom_site_label
_atom_site_type_symbol
_atom_site_fract_x
_atom_site_fract_y
_atom_site_fract_z
0	O	0.198849	0.796255	0.2956
0	O	0.229522	0.569817	0.296913
0	O	0.579039	0.192056	0.295244
0	O	0.809193	0.222076	0.296908
0	O	0.708662	0.0964356	0.664193
0	O	0.677813	0.322885	0.662963
0	O	0.328241	0.700525	0.664566
0	O	0.0980895	0.670498	0.663017
0	O	0.0994009	0.703806	0.295536
0	O	0.328536	0.663307	0.298232
0	O	0.673202	0.0943196	0.297634
0	O	0.714479	0.319919	0.295804
0	O	0.808068	0.189008	0.664515
0	O	0.578877	0.229292	0.661537
0	O	0.23405	0.798272	0.662318
0	O	0.192826	0.572669	0.664025
0	O	0.10905	0.585975	0.380319
0	O	0.319468	0.782961	0.378828
0	O	0.793925	0.103328	0.380211
0	O	0.593436	0.311098	0.377494
0	O	0.798203	0.306729	0.579376
0	O	0.588014	0.109673	0.581007
0	O	0.113391	0.789202	0.579589
0	O	0.313821	0.581529	0.582201
0	O	0.0533848	0.689072	0.479627
0	O	0.373964	0.681168	0.481849
0	O	0.689727	0.0497963	0.481849
0	O	0.696909	0.365749	0.478936
0	O	0.853827	0.20349	0.480272
0	O	0.533449	0.21145	0.478006
0	O	0.217718	0.842691	0.478068
0	O	0.210255	0.52692	0.48087
0	Si	0.158856	0.739862	0.230738
0	Si	0.270358	0.625932	0.232557
0	Si	0.636433	0.152002	0.231431
0	Si	0.752177	0.261717	0.231775
0	Si	0.748593	0.152845	0.729126
0	Si	0.637001	0.266697	0.727281
0	Si	0.270844	0.740531	0.728412
0	Si	0.155081	0.630815	0.728121
0	Si	0.061771	0.653046	0.372589
0	Si	0.366061	0.715295	0.373576
0	Si	0.725281	0.0573231	0.373959
0	Si	0.661823	0.357346	0.370999
0	Si	0.845539	0.239697	0.587191
0	Si	0.541358	0.177279	0.586231
0	Si	0.182023	0.835219	0.585878
0	Si	0.245438	0.535275	0.588728
0	Si	0.252935	0.83165	0.370725
0	Si	0.174957	0.536486	0.373392
0	Si	0.543842	0.245769	0.370289
0	Si	0.843752	0.168566	0.373002
0	Si	0.65455	0.0609687	0.5892
0	Si	0.732292	0.356194	0.586358
0	Si	0.363457	0.646816	0.589507
0	Si	0.063529	0.723985	0.586901
0	C	0.118874	0.780443	0.124877
0	C	0.312921	0.58436	0.129478
0	C	0.594736	0.111904	0.126541
0	C	0.793599	0.302405	0.127042
0	C	0.788572	0.112198	0.83495
0	C	0.594324	0.308162	0.830349
0	C	0.312524	0.780591	0.833356
0	C	0.11365	0.589994	0.832734
0	C	0.0835293	0.84032	0.139682
0	C	0.353661	0.528791	0.150644
0	C	0.53881	0.0704952	0.14487
0	C	0.855055	0.335952	0.142757
0	C	0.823835	0.0522909	0.820104
0	C	0.553855	0.363943	0.809324
0	C	0.368563	0.821877	0.815202
0	C	0.0522379	0.556404	0.816868
0	H	0.0809114	0.862848	0.212229
0	H	0.35839	0.510392	0.225498
0	H	0.520924	0.0623525	0.219457
0	H	0.879039	0.335583	0.214682
0	H	0.826307	0.0297097	0.747583
0	H	0.549464	0.382626	0.734577
0	H	0.386644	0.829904	0.740691
0	H	0.0282514	0.556932	0.744949
0	C	0.0511567	0.87192	0.061739
0	C	0.388918	0.49625	0.0762482
0	C	0.505219	0.0390391	0.0678954
0	C	0.886366	0.370455	0.0665666
0	C	0.856321	0.0207076	0.897976
0	C	0.518436	0.396325	0.883711
0	C	0.402028	0.853354	0.892299
0	C	0.0210114	0.521632	0.892852
0	H	0.0237305	0.917994	0.0741018
0	H	0.420476	0.45345	0.0935554
0	H	0.462103	0.00710924	0.0830134
0	H	0.933619	0.396548	0.0797673
0	H	0.883665	0.974591	0.885586
0	H	0.48706	0.43927	0.866498
0	H	0.44523	0.885202	0.877336
0	H	0.973803	0.49549	0.879513
0	C	0.0539434	0.84435	0.968194
0	C	0.383914	0.518619	0.979932
0	C	0.526954	0.0485703	0.97184
0	C	0.85697	0.371572	0.973834
0	C	0.853735	0.048362	0.991484
0	C	0.523023	0.373579	0.979877
0	C	0.380022	0.843953	0.98825
0	C	0.0504295	0.520303	0.985569
0	H	0.029092	0.869204	0.907472
0	H	0.411434	0.493165	0.922045
0	H	0.500573	0.0243892	0.911876
0	H	0.881461	0.398256	0.914511
0	H	0.878711	0.0235533	0.0521398
0	H	0.495377	0.398907	0.0377606
0	H	0.406288	0.868157	0.0483055
0	H	0.0260199	0.493367	0.0447133
0	C	0.0887046	0.784822	0.952907
0	C	0.343624	0.573662	0.958217
0	C	0.582654	0.0892485	0.953024
0	C	0.796066	0.338305	0.957509
0	C	0.81899	0.107888	0.00682826
0	C	0.563018	0.318298	0.00144877
0	C	0.324203	0.803399	0.00686615
0	C	0.111247	0.553693	0.00209777
0	H	0.0906651	0.763009	0.879988
0	H	0.339975	0.591429	0.883073
0	H	0.600037	0.0964435	0.878156
0	H	0.772971	0.339248	0.885126
0	H	0.817147	0.129749	0.0797291
0	H	0.566309	0.300228	0.076481
0	H	0.306611	0.796302	0.0816511
0	H	0.134341	0.552592	0.07449
0	C	0.120842	0.752858	0.0308236
0	C	0.308378	0.606454	0.0325899
0	C	0.616552	0.12061	0.0299345
0	C	0.764409	0.304031	0.0337107
0	C	0.786713	0.139816	0.928979
0	C	0.598414	0.28566	0.927088
0	C	0.290427	0.772015	0.929837
0	C	0.142834	0.588223	0.926079
0	H	0.147122	0.705977	0.0173646
0	H	0.277514	0.649723	0.0139582
0	H	0.660393	0.151707	0.0135545
0	H	0.716423	0.278888	0.0195124
0	H	0.760404	0.186671	0.942517
0	H	0.629002	0.242199	0.945554
0	H	0.246489	0.741009	0.946066
0	H	0.190736	0.613459	0.940441
0	C	0.977894	0.629299	0.325389
0	C	0.450479	0.736703	0.325725
0	C	0.747277	0.974408	0.325795
0	C	0.63868	0.439905	0.322867
0	C	0.929504	0.263621	0.633899
0	C	0.456917	0.155856	0.634033
0	C	0.159933	0.918199	0.633717
0	C	0.268562	0.452669	0.636732
0	C	0.970348	0.61093	0.226934
0	C	0.459716	0.747436	0.225193
0	C	0.765547	0.966936	0.227191
0	C	0.628111	0.448922	0.222246
0	C	0.937599	0.281172	0.732575
0	C	0.447591	0.145363	0.734624
0	C	0.142294	0.926026	0.732507
0	C	0.279239	0.443612	0.737325
0	H	0.013449	0.612168	0.177042
0	H	0.417391	0.742752	0.174396
0	H	0.766504	0.00977359	0.178129
0	H	0.634693	0.407625	0.171277
0	H	0.894832	0.279224	0.783014
0	H	0.489909	0.150183	0.785481
0	H	0.141829	0.883373	0.781938
0	H	0.272824	0.484913	0.788324
0	C	0.907379	0.590853	0.191146
0	C	0.523426	0.764191	0.188385
0	C	0.782529	0.90434	0.190075
0	C	0.609014	0.511065	0.185616
0	C	0.000683419	0.301343	0.767869
0	C	0.383856	0.128737	0.771393
0	C	0.125301	0.988707	0.769288
0	C	0.298219	0.381416	0.773868
0	H	0.902142	0.576566	0.114979
0	H	0.5299	0.772676	0.110551
0	H	0.796634	0.899164	0.113735
0	H	0.60056	0.517352	0.107735
0	H	0.006337	0.315041	0.844209
0	H	0.377311	0.120463	0.849265
0	H	0.111646	0.994153	0.845756
0	H	0.306748	0.375083	0.851727
0	C	0.851235	0.588985	0.252972
0	C	0.578647	0.770203	0.251368
0	C	0.781394	0.848512	0.250737
0	C	0.600596	0.56496	0.248802
0	C	0.0563864	0.304068	0.705297
0	C	0.328688	0.122584	0.708354
0	C	0.125841	0.0443037	0.708102
0	C	0.306417	0.327519	0.710635
0	H	0.802371	0.572941	0.225202
0	H	0.628125	0.783504	0.222806
0	H	0.79483	0.799885	0.221838
0	H	0.585478	0.6133	0.220433
0	H	0.10535	0.32014	0.732694
0	H	0.279171	0.109396	0.736904
0	H	0.112438	0.0929725	0.736746
0	H	0.321436	0.279122	0.738944
0	C	0.858156	0.607392	0.350763
0	C	0.569991	0.759614	0.351369
0	C	0.763314	0.855396	0.348768
0	C	0.611128	0.556567	0.348872
0	C	0.0489261	0.286507	0.607257
0	C	0.337456	0.132868	0.608304
0	C	0.143238	0.0370628	0.609874
0	C	0.295825	0.336	0.610592
0	H	0.814621	0.605703	0.399104
0	H	0.612812	0.764603	0.400505
0	H	0.762651	0.812163	0.396253
0	H	0.604247	0.59851	0.398077
0	H	0.0921145	0.288909	0.558326
0	H	0.294685	0.12777	0.559129
0	H	0.143413	0.0801515	0.561966
0	H	0.302511	0.294103	0.561362
0	C	0.921088	0.627359	0.38682
0	C	0.506262	0.743227	0.388472
0	C	0.746499	0.917945	0.386138
0	C	0.629696	0.494346	0.385841
0	C	0.985868	0.266526	0.571666
0	C	0.401193	0.149153	0.571222
0	C	0.160003	0.97439	0.572807
0	C	0.277348	0.398222	0.573704
0	H	0.925385	0.641268	0.463835
0	H	0.500502	0.735905	0.467101
0	H	0.732772	0.922188	0.463174
0	H	0.636675	0.488691	0.464545
0	H	0.98113	0.253483	0.494482
0	H	0.407029	0.156255	0.492575
0	H	0.173047	0.969857	0.495559
0	H	0.270309	0.403932	0.495004
0	C	0.27913	0.911995	0.317855
0	C	0.147342	0.455204	0.32528
0	C	0.461787	0.271944	0.319264
0	C	0.926021	0.142074	0.322787
0	C	0.628348	0.980669	0.642218
0	C	0.759972	0.437474	0.634407
0	C	0.445449	0.620523	0.640615
0	C	0.981304	0.750526	0.637214
0	C	0.282998	0.970432	0.373636
0	C	0.146328	0.397993	0.384029
0	C	0.403874	0.278416	0.377758
0	C	0.98537	0.141993	0.378957
0	C	0.625081	0.922075	0.586735
0	C	0.760524	0.49481	0.575895
0	C	0.503441	0.614159	0.582264
0	C	0.921812	0.750089	0.581382
0	H	0.270605	0.969807	0.451414
0	H	0.1622	0.400347	0.46039
0	H	0.40617	0.268196	0.456051
0	H	0.984352	0.157969	0.455256
0	H	0.638128	0.922529	0.509154
0	H	0.744172	0.492581	0.499737
0	H	0.501276	0.624621	0.504033
0	H	0.922669	0.733511	0.505336
0	C	0.303024	0.0303752	0.330622
0	C	0.124427	0.337154	0.345921
0	C	0.342466	0.298658	0.336746
0	C	0.0467281	0.121295	0.338323
0	C	0.604882	0.862182	0.629728
0	C	0.782572	0.555599	0.613975
0	C	0.564758	0.593725	0.623367
0	C	0.860506	0.770939	0.622029
0	H	0.305974	0.0753065	0.374566
0	H	0.123904	0.293122	0.391945
0	H	0.297819	0.303503	0.382475
0	H	0.0923414	0.121361	0.382546
0	H	0.602399	0.817138	0.586011
0	H	0.782773	0.599702	0.568091
0	H	0.609461	0.588924	0.577719
0	H	0.814795	0.770503	0.578022
0	C	0.319716	0.0325639	0.231616
0	C	0.102694	0.332902	0.249118
0	C	0.338346	0.31314	0.237195
0	C	0.0494463	0.100086	0.241322
0	C	0.587489	0.860197	0.728496
0	C	0.804905	0.559703	0.710496
0	C	0.568712	0.578936	0.722814
0	C	0.857986	0.792769	0.718746
0	H	0.335442	0.0791854	0.198387
0	H	0.0851446	0.285628	0.219901
0	H	0.290552	0.329168	0.205638
0	H	0.0970991	0.0836436	0.209987
0	H	0.57165	0.813618	0.761739
0	H	0.822588	0.606917	0.739692
0	H	0.616407	0.562731	0.754435
0	H	0.810341	0.809284	0.750091
0	C	0.316386	0.974647	0.175505
0	C	0.10323	0.389574	0.190147
0	C	0.395791	0.307334	0.178468
0	C	0.990666	0.0997771	0.184794
0	C	0.590327	0.918259	0.784378
0	C	0.804837	0.502902	0.769222
0	C	0.511186	0.584646	0.781378
0	C	0.916903	0.793515	0.774977
0	H	0.329223	0.976089	0.0983496
0	H	0.0863185	0.386423	0.114778
0	H	0.392797	0.318695	0.100962
0	H	0.992583	0.0833985	0.109192
0	H	0.576959	0.91695	0.861354
0	H	0.822226	0.505938	0.844382
0	H	0.514062	0.573101	0.858832
0	H	0.915134	0.81034	0.850363
0	C	0.296207	0.914731	0.218234
0	C	0.125587	0.450332	0.2278
0	C	0.457143	0.286806	0.219154
0	C	0.929348	0.120718	0.225122
0	C	0.610615	0.978124	0.7416
0	C	0.782349	0.442189	0.731617
0	C	0.449923	0.605381	0.740651
0	C	0.978166	0.772468	0.73461
0	H	0.293745	0.870057	0.172699
0	H	0.125972	0.494001	0.18001
0	H	0.501454	0.282474	0.171568
0	H	0.884008	0.120437	0.179273
0	H	0.612654	0.0229135	0.78695
0	H	0.78235	0.398413	0.779181
0	H	0.405543	0.609627	0.788096
0	H	0.0236207	0.773148	0.780213
0	O	0.214647	0.68264	0.196894
0	O	0.69454	0.206701	0.196922
0	O	0.692718	0.210006	0.762933
0	O	0.212742	0.685832	0.762949
