#******************************************
#
# CIF file created by Zeo++
# Zeo++ is an open source package to
# analyze microporous materials
#
#*******************************************

_cell_length_a		15.6157(0)
_cell_length_b		12.3534(0)
_cell_length_c		42.1022(0)
_cell_angle_alpha		90(0)
_cell_angle_beta		94.8759(0)
_cell_angle_gamma		90(0)

_symmetry_space_group_name_H-M		'P1'
_symmetry_Int_Tables_number		1
_symmetry_cell_setting		Monoclinic

loop_
_symmetry_equiv_pos_as_xyz
'+x,+y,+z'

loop_
_atom_site_label
_atom_site_type_symbol
_atom_site_fract_x
_atom_site_fract_y
_atom_site_fract_z
0	C	0.582054	0.5898	0.422007
0	C	0.414541	0.590031	0.0797196
0	C	0.408077	0.413879	0.581655
0	C	0.575371	0.413302	0.923287
0	C	0.0810075	0.0894768	0.421823
0	C	0.915612	0.0896422	0.0799083
0	C	0.90898	0.914041	0.581509
0	C	0.0743582	0.91386	0.923427
0	H	0.52596	0.641806	0.42295
0	H	0.470664	0.642026	0.0787861
0	H	0.464182	0.361848	0.580788
0	H	0.519262	0.361268	0.924176
0	H	0.0246875	0.140971	0.42282
0	H	0.971974	0.141097	0.0789193
0	H	0.965295	0.862526	0.580531
0	H	0.0179966	0.862418	0.924429
0	C	0.634204	0.566824	0.449855
0	C	0.362295	0.567254	0.0518873
0	C	0.356135	0.436666	0.55374
0	C	0.627452	0.436045	0.95117
0	C	0.133313	0.0667634	0.449648
0	C	0.863199	0.0671579	0.0520986
0	C	0.856727	0.936735	0.553671
0	C	0.126792	0.936377	0.951232
0	H	0.617888	0.600009	0.472586
0	H	0.378586	0.600562	0.0291573
0	H	0.37264	0.403375	0.531046
0	H	0.611047	0.402631	0.973871
0	H	0.116861	0.0995171	0.472402
0	H	0.879632	0.100038	0.0293463
0	H	0.873233	0.904003	0.530922
0	H	0.110373	0.903505	0.973986
0	C	0.707084	0.501992	0.448893
0	C	0.289344	0.502512	0.052853
0	C	0.28317	0.501415	0.554582
0	C	0.700381	0.500882	0.950291
0	C	0.20647	0.00254648	0.44863
0	C	0.789962	0.00305076	0.0531186
0	C	0.783519	0.000872826	0.554671
0	C	0.200016	0.000503179	0.950197
0	H	0.747489	0.484485	0.470665
0	H	0.24878	0.485317	0.0310901
0	H	0.242888	0.518726	0.532768
0	H	0.740827	0.518055	0.972086
0	H	0.24713	0.985188	0.470345
0	H	0.749142	0.986017	0.0314113
0	H	0.742872	0.0181572	0.532948
0	H	0.240851	0.0175856	0.971899
0	C	0.728398	0.459429	0.419476
0	C	0.26814	0.459677	0.0822421
0	C	0.261608	0.54415	0.583944
0	C	0.721727	0.543832	0.920934
0	C	0.227821	0.960365	0.419174
0	C	0.768711	0.960587	0.0825448
0	C	0.762104	0.0430805	0.584116
0	C	0.221238	0.0429098	0.92076
0	C	0.674575	0.47971	0.391543
0	C	0.322071	0.479792	0.110169
0	C	0.315271	0.524133	0.611937
0	C	0.66796	0.523769	0.892966
0	C	0.173943	0.980505	0.391248
0	C	0.822698	0.980544	0.110465
0	C	0.815976	0.023039	0.612052
0	C	0.167254	0.0228893	0.892845
0	H	0.688721	0.443502	0.36891
0	H	0.307954	0.443468	0.13279
0	H	0.300939	0.560495	0.634528
0	H	0.682188	0.560168	0.870367
0	H	0.188295	0.94469	0.368598
0	H	0.808369	0.944619	0.133104
0	H	0.801595	0.0589067	0.634691
0	H	0.181574	0.0587505	0.870196
0	C	0.602216	0.545181	0.393023
0	C	0.394414	0.545285	0.108695
0	C	0.387668	0.458659	0.610583
0	C	0.595622	0.45821	0.894352
0	C	0.101236	0.0452989	0.392791
0	C	0.895407	0.0453349	0.108929
0	C	0.888682	0.958231	0.610531
0	C	0.0945473	0.958105	0.894395
0	H	0.560726	0.56089	0.371348
0	H	0.435927	0.560939	0.130373
0	H	0.429004	0.443067	0.632303
0	H	0.554224	0.442628	0.872644
0	H	0.0595678	0.060863	0.37116
0	H	0.937103	0.0608219	0.130564
0	H	0.930314	0.942673	0.632173
0	H	0.0528456	0.942584	0.872767
0	C	0.784491	0.171175	0.476739
0	C	0.210028	0.169676	0.0254847
0	C	0.205483	0.832325	0.526634
0	C	0.779853	0.833753	0.97781
0	C	0.283802	0.673025	0.476562
0	C	0.710719	0.671492	0.0256596
0	C	0.706133	0.330515	0.526798
0	C	0.279221	0.332011	0.977653
0	H	0.734745	0.117187	0.48439
0	H	0.259418	0.115177	0.0178201
0	H	0.255251	0.886311	0.518996
0	H	0.730463	0.888247	0.985479
0	H	0.234001	0.619217	0.484227
0	H	0.760169	0.61718	0.0179833
0	H	0.755955	0.384326	0.519149
0	H	0.229772	0.386319	0.985334
0	C	0.869037	0.16252	0.490361
0	C	0.125182	0.161238	0.0121727
0	C	0.120943	0.841065	0.513016
0	C	0.864708	0.842189	0.991118
0	C	0.36831	0.664416	0.490217
0	C	0.625913	0.663079	0.0123122
0	C	0.621632	0.339208	0.513145
0	C	0.364038	0.340418	0.990997
0	H	0.885459	0.102507	0.508843
0	H	0.107676	0.100681	0.993937
0	H	0.104546	0.90112	0.494544
0	H	0.882235	0.902759	0.00934995
0	H	0.384704	0.604658	0.508773
0	H	0.608449	0.602771	0.994
0	H	0.605265	0.399005	0.494597
0	H	0.381524	0.400732	0.00930744
0	C	0.932256	0.232378	0.480581
0	C	0.0625559	0.23213	0.0218464
0	C	0.0577016	0.771194	0.522769
0	C	0.927303	0.771256	0.981445
0	C	0.431642	0.734001	0.480382
0	C	0.563169	0.733695	0.0220427
0	C	0.558274	0.269614	0.522951
0	C	0.426756	0.269766	0.98127
0	H	0.998106	0.226553	0.491474
0	H	0.996553	0.226362	0.0111233
0	H	0.991858	0.777082	0.511875
0	H	0.99331	0.77699	0.992172
0	H	0.497507	0.728042	0.491285
0	H	0.497148	0.727789	0.0113112
0	H	0.492415	0.275642	0.512048
0	H	0.492777	0.275641	0.992008
0	C	0.911629	0.310277	0.457177
0	C	0.0840892	0.31087	0.0448975
0	C	0.0783011	0.693183	0.546144
0	C	0.905762	0.692539	0.95839
0	C	0.411169	0.811692	0.456908
0	C	0.584542	0.812243	0.045164
0	C	0.578716	0.191794	0.546392
0	C	0.405381	0.191237	0.958147
0	H	0.960971	0.365035	0.449578
0	H	0.0352114	0.366387	0.052412
0	H	0.028941	0.638401	0.553714
0	H	0.954626	0.636996	0.950879
0	H	0.460571	0.86618	0.449243
0	H	0.535597	0.867484	0.0527447
0	H	0.529299	0.137282	0.554029
0	H	0.454305	0.135965	0.950568
0	C	0.826511	0.317777	0.44337
0	C	0.169453	0.318014	0.0584811
0	C	0.163409	0.685623	0.559962
0	C	0.820402	0.685434	0.944802
0	C	0.326068	0.819161	0.443106
0	C	0.669888	0.819381	0.0587424
0	C	0.663809	0.18425	0.5602
0	C	0.32004	0.184137	0.944568
0	C	0.762488	0.248744	0.453316
0	C	0.232892	0.248065	0.0485824
0	C	0.227457	0.754649	0.55003
0	C	0.75697	0.755369	0.954715
0	C	0.26196	0.75034	0.453061
0	C	0.733413	0.749648	0.0488335
0	C	0.727944	0.253081	0.550267
0	C	0.256513	0.253862	0.954483
0	H	0.696297	0.255339	0.442929
0	H	0.299305	0.254656	0.058709
0	H	0.293646	0.747984	0.560414
0	H	0.690551	0.748781	0.944597
0	H	0.195873	0.756928	0.442604
0	H	0.799723	0.756238	0.0590324
0	H	0.794028	0.246422	0.560725
0	H	0.1902	0.247265	0.944292
0	C	0.900369	0.303409	0.383528
0	C	0.0964462	0.30362	0.118264
0	C	0.089637	0.700114	0.619815
0	C	0.893594	0.699935	0.885051
0	C	0.399875	0.804275	0.38338
0	C	0.596933	0.804479	0.118414
0	C	0.590194	0.199194	0.619946
0	C	0.39307	0.19906	0.884916
0	H	0.895552	0.229168	0.397207
0	H	0.101326	0.229387	0.104585
0	H	0.0944879	0.774326	0.60613
0	H	0.888708	0.774159	0.898738
0	H	0.394961	0.730134	0.397089
0	H	0.601906	0.730335	0.104704
0	H	0.595145	0.273315	0.606232
0	H	0.388091	0.273199	0.898631
0	C	0.952939	0.30593	0.358447
0	C	0.0438009	0.306057	0.143317
0	C	0.0370746	0.697633	0.6449
0	C	0.946238	0.697522	0.859998
0	C	0.452678	0.806723	0.358379
0	C	0.544054	0.806844	0.143385
0	C	0.5374	0.196804	0.644951
0	C	0.445942	0.196718	0.859943
0	H	0.989008	0.233337	0.353209
0	H	0.00771081	0.233455	0.148529
0	H	0.00101252	0.770228	0.650139
0	H	0.982305	0.770137	0.854781
0	H	0.488885	0.734184	0.353249
0	H	0.507827	0.734297	0.148491
0	H	0.501205	0.269353	0.65008
0	H	0.482146	0.269281	0.854832
0	C	0.960166	0.399976	0.340037
0	C	0.0365257	0.400097	0.161729
0	C	0.0298311	0.603585	0.66331
0	C	0.953556	0.603474	0.8416
0	C	0.459949	0.900674	0.339949
0	C	0.53674	0.900793	0.161815
0	C	0.530105	0.102859	0.663384
0	C	0.453302	0.102766	0.841524
0	C	0.911268	0.491284	0.347047
0	C	0.0853908	0.491471	0.15475
0	C	0.0786687	0.512222	0.6563
0	C	0.904733	0.512065	0.848574
0	C	0.410891	0.991943	0.346824
0	C	0.585763	0.992121	0.154971
0	C	0.579111	0.0115448	0.65651
0	C	0.404307	0.0114141	0.848368
0	H	0.914037	0.56434	0.33256
0	H	0.0825891	0.564516	0.169238
0	H	0.0758876	0.439172	0.670788
0	H	0.907595	0.439007	0.834099
0	H	0.413763	0.0649011	0.332294
0	H	0.582862	0.0650699	0.169501
0	H	0.576228	0.938595	0.671042
0	H	0.407261	0.938448	0.833849
0	C	0.859396	0.490687	0.372364
0	C	0.137261	0.49099	0.12943
0	C	0.130472	0.512763	0.630963
0	C	0.852795	0.512551	0.873868
0	C	0.35877	0.991436	0.372062
0	C	0.637878	0.991728	0.129731
0	C	0.631164	0.0119829	0.631251
0	C	0.352122	0.0118154	0.873585
0	H	0.82418	0.563677	0.377749
0	H	0.172422	0.564005	0.124029
0	H	0.165606	0.439728	0.625561
0	H	0.817619	0.439538	0.879262
0	H	0.323372	0.0644509	0.377332
0	H	0.673228	0.0647686	0.124443
0	H	0.666486	0.938919	0.62597
0	H	0.316751	0.938783	0.87886
0	C	0.854282	0.396748	0.391155
0	C	0.142416	0.397077	0.110646
0	C	0.135614	0.606702	0.612176
0	C	0.847602	0.606481	0.892646
0	C	0.353733	0.897662	0.390898
0	C	0.642953	0.897979	0.110902
0	C	0.636219	0.105732	0.612408
0	C	0.34703	0.105565	0.892416
0	C	0.0188214	0.402819	0.314353
0	C	0.9778	0.402877	0.187381
0	C	0.971168	0.600742	0.688987
0	C	0.0122689	0.6007	0.815943
0	C	0.518808	0.903423	0.314351
0	C	0.477807	0.903479	0.187382
0	C	0.471223	0.100129	0.688975
0	C	0.512226	0.100089	0.815952
0	C	0.0374385	0.30557	0.298248
0	C	0.959222	0.305608	0.203482
0	C	0.952593	0.697987	0.705103
0	C	0.0308803	0.697985	0.799856
0	C	0.537442	0.806291	0.298213
0	C	0.459213	0.806332	0.203518
0	C	0.452616	0.197248	0.705127
0	C	0.530865	0.197247	0.79983
0	H	0.00662445	0.229428	0.303907
0	H	0.990047	0.229486	0.197823
0	H	0.983432	0.774113	0.699453
0	H	5.37323e-05	0.774106	0.805524
0	H	0.506333	0.730339	0.303797
0	H	0.49034	0.730391	0.197934
0	H	0.48375	0.273192	0.699552
0	H	0.499744	0.273187	0.805422
0	C	0.0948844	0.309144	0.275207
0	C	0.901743	0.309154	0.226512
0	C	0.895128	0.694399	0.728136
0	C	0.0883389	0.694438	0.776822
0	C	0.595174	0.809836	0.275274
0	C	0.401444	0.809849	0.226445
0	C	0.394859	0.193698	0.728057
0	C	0.588616	0.193733	0.776898
0	C	0.133648	0.408681	0.266656
0	C	0.862953	0.408699	0.235064
0	C	0.856368	0.59484	0.736684
0	C	0.127101	0.594893	0.768272
0	C	0.634119	0.909369	0.266818
0	C	0.362486	0.90937	0.2349
0	C	0.355925	0.0941549	0.73651
0	C	0.627553	0.0942047	0.768443
0	C	0.114586	0.503899	0.281807
0	C	0.881989	0.503892	0.219908
0	C	0.875435	0.499658	0.721532
0	C	0.108042	0.49965	0.783408
0	C	0.614996	0.00447711	0.282004
0	C	0.381571	0.0044908	0.219711
0	C	0.375052	0.999062	0.721322
0	C	0.608432	0.999063	0.783615
0	H	0.142374	0.580939	0.275337
0	H	0.854175	0.580961	0.226369
0	H	0.847659	0.422573	0.727999
0	H	0.135821	0.422604	0.776936
0	H	0.642836	0.081525	0.275668
0	H	0.353709	0.0815311	0.226041
0	H	0.347226	0.921995	0.727658
0	H	0.636262	0.922018	0.777276
0	C	0.0576577	0.499732	0.306039
0	C	0.938893	0.499758	0.195666
0	C	0.93232	0.503834	0.697282
0	C	0.0511035	0.50379	0.807636
0	C	0.557826	0.000232738	0.306146
0	C	0.438712	0.00026207	0.195562
0	C	0.432181	0.00332465	0.697166
0	C	0.551249	0.00328167	0.807751
0	H	0.0445639	0.574762	0.318554
0	H	0.951914	0.574776	0.183125
0	H	0.945365	0.428807	0.684752
0	H	0.0380021	0.428756	0.82015
0	H	0.544666	0.0751726	0.318694
0	H	0.451806	0.0751737	0.182986
0	H	0.445295	0.928396	0.684604
0	H	0.53808	0.92834	0.820296
0	C	0.12762	0.218941	0.255515
0	C	0.868976	0.218959	0.246192
0	C	0.862361	0.784558	0.747828
0	C	0.121061	0.784637	0.757129
0	C	0.628134	0.719705	0.255627
0	C	0.368462	0.719727	0.246081
0	C	0.361871	0.283804	0.747706
0	C	0.621563	0.283855	0.757248
0	C	0.185131	0.273702	0.233492
0	C	0.811431	0.273681	0.268208
0	C	0.804813	0.729821	0.769829
0	C	0.178578	0.729883	0.735108
0	C	0.685782	0.774551	0.233679
0	C	0.310771	0.774535	0.26802
0	C	0.304178	0.228962	0.769634
0	C	0.67922	0.229022	0.735302
0	C	0.19028	0.386525	0.241027
0	C	0.806296	0.38653	0.260675
0	C	0.799704	0.616982	0.762293
0	C	0.183733	0.617055	0.742646
0	C	0.690917	0.887307	0.241249
0	C	0.305653	0.88729	0.260455
0	C	0.299083	0.116203	0.762064
0	C	0.684358	0.116273	0.742874
0	C	0.242629	0.454128	0.225062
0	C	0.753906	0.45405	0.276635
0	C	0.74733	0.5494	0.77824
0	C	0.236083	0.549475	0.72668
0	C	0.743363	0.954779	0.225306
0	C	0.253165	0.954722	0.276393
0	C	0.246614	0.0487275	0.77799
0	C	0.736802	0.0488096	0.726929
0	H	0.249974	0.539729	0.231133
0	H	0.746548	0.539691	0.270562
0	H	0.740009	0.463763	0.77217
0	H	0.243414	0.463861	0.732754
0	H	0.750764	0.0402976	0.23141
0	H	0.245764	0.0402478	0.270285
0	H	0.239242	0.963198	0.771887
0	H	0.744188	0.963288	0.733036
0	C	0.288533	0.409555	0.200771
0	C	0.707959	0.409445	0.300916
0	C	0.701339	0.593947	0.802514
0	C	0.28199	0.594071	0.702388
0	C	0.789317	0.910381	0.20101
0	C	0.20718	0.910284	0.300677
0	C	0.200582	0.0931044	0.80227
0	C	0.78275	0.0932262	0.70263
0	H	0.330047	0.462917	0.188225
0	H	0.666391	0.462834	0.313437
0	H	0.659771	0.540556	0.815033
0	H	0.323508	0.540673	0.689855
0	H	0.830867	0.963837	0.188526
0	H	0.165578	0.963745	0.313137
0	H	0.158984	0.0396319	0.814729
0	H	0.824303	0.0397419	0.690158
0	C	0.281609	0.29993	0.192653
0	C	0.714905	0.299841	0.309045
0	C	0.708271	0.703551	0.810645
0	C	0.275057	0.703682	0.694257
0	C	0.782324	0.800815	0.192852
0	C	0.214192	0.800726	0.308849
0	C	0.207577	0.202655	0.810444
0	C	0.775751	0.202784	0.694456
0	C	0.229257	0.230224	0.209546
0	C	0.767254	0.230174	0.292138
0	C	0.76062	0.773283	0.79376
0	C	0.222692	0.77336	0.711158
0	C	0.729949	0.731134	0.209741
0	C	0.266563	0.731084	0.291943
0	C	0.259949	0.272359	0.793559
0	C	0.723367	0.272433	0.711356
0	H	0.22428	0.144243	0.203724
0	H	0.772216	0.144179	0.297939
0	H	0.765575	0.859262	0.799582
0	H	0.217694	0.85934	0.705336
0	H	0.725052	0.645205	0.203894
0	H	0.271442	0.645131	0.297773
0	H	0.264819	0.358292	0.799408
0	H	0.718451	0.358367	0.705507
0	C	0.327298	0.256452	0.166146
0	C	0.669235	0.256345	0.335558
0	C	0.662585	0.747022	0.83715
0	C	0.320718	0.747187	0.667743
0	C	0.828007	0.757447	0.166319
0	C	0.168528	0.757341	0.335388
0	C	0.161894	0.246008	0.836978
0	C	0.821407	0.246166	0.667913
0	C	0.413637	0.283164	0.163033
0	C	0.582912	0.283059	0.338704
0	C	0.576248	0.72032	0.840271
0	C	0.407057	0.720534	0.664613
0	C	0.914322	0.784184	0.163154
0	C	0.0822322	0.784076	0.338585
0	C	0.0755837	0.219283	0.840151
0	C	0.907719	0.219489	0.66473
0	H	0.448607	0.333553	0.181088
0	H	0.547928	0.333445	0.320656
0	H	0.541274	0.669937	0.822218
0	H	0.442045	0.670169	0.682665
0	H	0.949205	0.834611	0.181217
0	H	0.047335	0.834497	0.32053
0	H	0.0406936	0.16886	0.822093
0	H	0.942622	0.169087	0.682789
0	C	0.455448	0.245784	0.137218
0	C	0.541144	0.245661	0.364528
0	C	0.534452	0.757721	0.866088
0	C	0.448815	0.75791	0.638783
0	C	0.956092	0.746805	0.137324
0	C	0.0405029	0.746679	0.364423
0	C	0.0338225	0.256687	0.865982
0	C	0.94944	0.256872	0.638887
0	H	0.522391	0.267259	0.135062
0	H	0.474205	0.26715	0.366683
0	H	0.467506	0.736283	0.868245
0	H	0.515756	0.73643	0.63663
0	H	0.0229526	0.768384	0.135179
0	H	0.973644	0.768271	0.366566
0	H	0.966956	0.235145	0.868126
0	H	0.016302	0.23529	0.636746
0	C	0.410738	0.180572	0.113818
0	C	0.585874	0.180457	0.387932
0	C	0.579201	0.822911	0.88949
0	C	0.404062	0.823033	0.615368
0	C	0.911353	0.68153	0.113942
0	C	0.0852608	0.681417	0.387809
0	C	0.0785899	0.321946	0.889366
0	C	0.904666	0.322062	0.615491
0	C	0.324404	0.152258	0.117042
0	C	0.672177	0.152076	0.38467
0	C	0.665536	0.851207	0.886264
0	C	0.31774	0.851367	0.618623
0	C	0.825073	0.653127	0.117226
0	C	0.171514	0.652944	0.384488
0	C	0.164875	0.350327	0.886079
0	C	0.818396	0.350487	0.618805
0	H	0.288605	0.102263	0.0991551
0	H	0.708	0.10205	0.402541
0	H	0.701358	0.901187	0.904149
0	H	0.281903	0.901334	0.600737
0	H	0.789315	0.603037	0.0993419
0	H	0.207293	0.60282	0.402357
0	H	0.200652	0.400412	0.903962
0	H	0.782605	0.400555	0.600924
0	C	0.283735	0.189606	0.143068
0	C	0.712792	0.18943	0.358626
0	C	0.706172	0.813864	0.860229
0	C	0.27712	0.814001	0.644661
0	C	0.784469	0.69048	0.143269
0	C	0.21206	0.690304	0.358426
0	C	0.205447	0.312979	0.860028
0	C	0.777841	0.313111	0.64486
0	H	0.216681	0.167914	0.145232
0	H	0.779832	0.167686	0.356442
0	H	0.773225	0.835555	0.858055
0	H	0.210058	0.835664	0.646832
0	H	0.717477	0.668573	0.145439
0	H	0.27904	0.668346	0.356238
0	H	0.272436	0.33489	0.857849
0	H	0.710842	0.334994	0.647037
0	C	0.424142	0.0478612	0.0699483
0	C	0.572175	0.0480711	0.431936
0	C	0.5658	0.955632	0.933356
0	C	0.417768	0.95542	0.571363
0	C	0.924493	0.548634	0.07005
0	C	0.0718196	0.548846	0.431836
0	C	0.0654492	0.454862	0.933253
0	C	0.918119	0.454641	0.571464
0	C	0.40062	0.955142	0.086694
0	C	0.596092	0.955286	0.415305
0	C	0.589332	0.0483491	0.916613
0	C	0.393868	0.0481956	0.588005
0	C	0.901078	0.455852	0.0868067
0	C	0.0956319	0.455997	0.415194
0	C	0.0888727	0.547645	0.9165
0	C	0.894326	0.547481	0.588116
0	H	0.407376	0.954127	0.11271
0	H	0.589869	0.954156	0.389284
0	H	0.582586	0.0493753	0.890597
0	H	0.400088	0.0493065	0.614025
0	H	0.907749	0.45484	0.112833
0	H	0.0894942	0.45487	0.389162
0	H	0.0822137	0.548666	0.890474
0	H	0.90046	0.548589	0.614147
0	C	0.369748	0.864398	0.0696937
0	C	0.626619	0.864565	0.432407
0	C	0.620213	0.139088	0.933622
0	C	0.363337	0.138921	0.570906
0	C	0.870483	0.364842	0.0698623
0	C	0.125884	0.365012	0.432239
0	C	0.11947	0.638653	0.933453
0	C	0.864073	0.638471	0.571074
0	H	0.350562	0.792953	0.0826017
0	H	0.646317	0.793176	0.419568
0	H	0.63942	0.21052	0.920712
0	H	0.343617	0.210291	0.583751
0	H	0.851528	0.293306	0.0827976
0	H	0.14536	0.293535	0.419374
0	H	0.13844	0.710181	0.920516
0	H	0.844573	0.709931	0.583945
0	C	0.363649	0.86393	0.0363275
0	C	0.631584	0.86402	0.465765
0	C	0.62629	0.139548	0.966987
0	C	0.35838	0.139508	0.537548
0	C	0.864399	0.364082	0.0364866
0	C	0.130827	0.364177	0.465607
0	C	0.12553	0.639407	0.966828
0	C	0.859144	0.639352	0.537707
0	H	0.339968	0.792707	0.02322
0	H	0.65497	0.792756	0.478929
0	H	0.64997	0.210763	0.980103
0	H	0.334992	0.21077	0.524386
0	H	0.841014	0.292533	0.0234272
0	H	0.153912	0.292583	0.478722
0	H	0.148913	0.710948	0.979894
0	H	0.836057	0.710945	0.524594
0	C	0.38908	0.955052	0.0198492
0	C	0.605312	0.954968	0.482144
0	C	0.600851	0.0484079	0.983458
0	C	0.384634	0.0485708	0.521164
0	C	0.889606	0.455334	0.0200206
0	C	0.104777	0.455252	0.481974
0	C	0.100317	0.548137	0.983285
0	C	0.885176	0.548286	0.521334
0	H	0.385535	0.954639	0.993804
0	H	0.607195	0.954135	0.508136
0	H	0.604387	0.0488126	0.00950331
0	H	0.382746	0.0494227	0.495172
0	H	0.886062	0.454801	0.993978
0	H	0.106654	0.45431	0.507961
0	H	0.103846	0.548662	0.00932834
0	H	0.883299	0.549254	0.495347
0	C	0.419136	0.047246	0.0363822
0	C	0.576147	0.047353	0.465506
0	C	0.570808	0.956226	0.966923
0	C	0.413778	0.956156	0.537793
0	C	0.919447	0.547777	0.0364964
0	C	0.0758251	0.547885	0.465393
0	C	0.0704952	0.455703	0.966807
0	C	0.914101	0.455623	0.537906
0	H	0.438124	0.118205	0.023298
0	H	0.556851	0.118342	0.478522
0	H	0.551832	0.885246	0.98
0	H	0.43303	0.885156	0.524772
0	H	0.93826	0.618709	0.0233123
0	H	0.0566942	0.618846	0.47851
0	H	0.051693	0.38475	0.979985
0	H	0.933189	0.384652	0.524786
0	C	0.514303	0.213041	0.0730984
0	C	0.482212	0.213167	0.428635
0	C	0.475655	0.790454	0.930215
0	C	0.507719	0.790288	0.574663
0	C	0.0144808	0.714071	0.0730762
0	C	0.982036	0.714208	0.428658
0	C	0.975471	0.28944	0.930237
0	C	0.00789759	0.289252	0.574641
0	C	0.591366	0.16848	0.0638735
0	C	0.40522	0.168512	0.437908
0	C	0.398599	0.835025	0.939449
0	C	0.584705	0.834973	0.565393
0	C	0.0915436	0.669747	0.0637513
0	C	0.905044	0.66979	0.43803
0	C	0.898416	0.33378	0.93957
0	C	0.0848837	0.333704	0.565272
0	H	0.605335	0.0827182	0.0678827
0	H	0.391369	0.0826839	0.433963
0	H	0.384636	0.920789	0.935441
0	H	0.59854	0.92081	0.569334
0	H	0.105687	0.58407	0.067767
0	H	0.891021	0.584046	0.434079
0	H	0.884275	0.419455	0.935554
0	H	0.0988907	0.419458	0.569221
0	C	0.649899	0.23524	0.0500154
0	C	0.346685	0.235252	0.451762
0	C	0.34006	0.768274	0.9533
0	C	0.643253	0.768241	0.551544
0	C	0.149801	0.736583	0.0497814
0	C	0.846787	0.736606	0.451996
0	C	0.840151	0.266954	0.953534
0	C	0.143155	0.266902	0.551311
0	H	0.710253	0.201109	0.043256
0	H	0.286377	0.201083	0.458541
0	H	0.279695	0.802393	0.960054
0	H	0.70354	0.802441	0.544754
0	H	0.210067	0.702546	0.042906
0	H	0.786565	0.702532	0.458891
0	H	0.779871	0.300982	0.960402
0	H	0.203357	0.30101	0.544406
0	C	0.63229	0.345342	0.045153
0	C	0.364253	0.345391	0.456584
0	C	0.357659	0.658161	0.958158
0	C	0.62574	0.658085	0.546741
0	C	0.13204	0.846665	0.044945
0	C	0.864506	0.846726	0.456793
0	C	0.857896	0.156863	0.958369
0	C	0.125494	0.156766	0.54653
0	H	0.678718	0.397074	0.0345894
0	H	0.317849	0.397075	0.467165
0	H	0.311212	0.606433	0.968713
0	H	0.672157	0.606402	0.536168
0	H	0.178315	0.898516	0.0343494
0	H	0.818257	0.898527	0.467406
0	H	0.811609	0.10502	0.968958
0	H	0.171753	0.104968	0.535923
0	C	0.55573	0.389095	0.0544825
0	C	0.440754	0.389204	0.447223
0	C	0.434198	0.614388	0.94882
0	C	0.549244	0.614254	0.556098
0	C	0.0555518	0.890269	0.0543695
0	C	0.940933	0.890387	0.447336
0	C	0.934362	0.113238	0.948936
0	C	0.0490719	0.113083	0.555982
0	H	0.542068	0.475135	0.0508552
0	H	0.454389	0.475233	0.450843
0	H	0.447839	0.528337	0.952435
0	H	0.535643	0.528215	0.552488
0	H	0.0418784	0.976311	0.050722
0	H	0.95458	0.976418	0.450974
0	H	0.948015	0.0271858	0.952575
0	H	0.0354588	0.0270419	0.55235
0	C	0.496399	0.32377	0.068493
0	C	0.500081	0.323904	0.4332
0	C	0.493526	0.679709	0.934802
0	C	0.489879	0.679542	0.570106
0	C	0.996495	0.824768	0.0684586
0	C	0.999985	0.82491	0.433234
0	C	0.993419	0.178731	0.93484
0	C	0.98998	0.178541	0.57007
0	H	0.437033	0.358686	0.0759011
0	H	0.559412	0.358854	0.42577
0	H	0.552852	0.644755	0.927373
0	H	0.430541	0.644585	0.577525
0	H	0.937191	0.859572	0.0759162
0	H	0.0592549	0.85975	0.425754
0	H	0.0526892	0.143889	0.927365
0	H	0.9307	0.143694	0.577536
0	N	0.806338	0.398005	0.418756
0	N	0.190116	0.398484	0.082981
0	N	0.1835	0.605308	0.584558
0	N	0.79975	0.605079	0.920271
0	N	0.305872	0.899259	0.418482
0	N	0.690565	0.899731	0.08325
0	N	0.683947	0.104	0.584786
0	N	0.299344	0.103847	0.920046
0	N	0.454174	0.142686	0.0873161
0	N	0.542437	0.1428	0.414463
0	N	0.535751	0.860825	0.915985
0	N	0.447423	0.86061	0.588811
0	N	0.954563	0.643611	0.0873791
0	N	0.0420552	0.643739	0.414404
0	N	0.0353641	0.359901	0.915921
0	N	0.947802	0.359668	0.588871
0	O	0.114174	0.123213	0.257719
0	O	0.88244	0.123187	0.243986
0	O	0.875862	0.880349	0.745634
0	O	0.107568	0.88037	0.75933
0	O	0.614707	0.623986	0.257821
0	O	0.381913	0.623952	0.243888
0	O	0.37535	0.379549	0.745526
0	O	0.608089	0.379596	0.759438
