#******************************************
#
# CIF file created by Zeo++
# Zeo++ is an open source package to
# analyze microporous materials
#
#*******************************************

_cell_length_a		17.4412(0)
_cell_length_b		8.44416(0)
_cell_length_c		20.7094(0)
_cell_angle_alpha		90(0)
_cell_angle_beta		108.327(0)
_cell_angle_gamma		90(0)

_symmetry_space_group_name_H-M		'P1'
_symmetry_Int_Tables_number		1
_symmetry_cell_setting		Monoclinic

loop_
_symmetry_equiv_pos_as_xyz
'+x,+y,+z'

loop_
_atom_site_label
_atom_site_type_symbol
_atom_site_fract_x
_atom_site_fract_y
_atom_site_fract_z
0	O	0.458312	0.96309	0.371428
0	O	0.549656	0.963444	0.639422
0	O	0.956359	0.463819	0.370951
0	O	0.0515292	0.464091	0.639877
0	O	0.674235	0.162628	0.247671
0	O	0.333607	0.162607	0.763105
0	O	0.174884	0.660672	0.249287
0	O	0.832945	0.660787	0.761501
0	O	0.37614	0.135128	0.181056
0	O	0.631756	0.134805	0.829856
0	O	0.877781	0.633021	0.180269
0	O	0.13009	0.632746	0.830633
0	C	0.509537	0.00842114	0.347285
0	C	0.498366	0.00856101	0.663532
0	C	0.00820254	0.507897	0.347277
0	C	0.999642	0.508001	0.663529
0	C	0.489345	0.0387937	0.272697
0	C	0.518538	0.0387821	0.738141
0	C	0.989364	0.535756	0.272665
0	C	0.0184442	0.535781	0.738157
0	C	0.544887	0.0910046	0.245193
0	C	0.462943	0.0908007	0.765611
0	C	0.0454901	0.587379	0.245685
0	C	0.962306	0.587369	0.7651
0	C	0.628653	0.116395	0.288042
0	C	0.379182	0.11636	0.722738
0	C	0.128779	0.614759	0.289257
0	C	0.879049	0.614744	0.721536
0	C	0.654023	0.0927684	0.35565
0	C	0.353853	0.0927924	0.655125
0	C	0.153025	0.593036	0.35697
0	C	0.854804	0.593016	0.653824
0	C	0.59785	0.0367061	0.393429
0	C	0.410054	0.0367339	0.61737
0	C	0.096142	0.536941	0.394091
0	C	0.911697	0.536907	0.616718
0	C	0.403014	0.0060326	0.2294
0	C	0.604813	0.00583043	0.781461
0	C	0.903561	0.503032	0.228336
0	C	0.104258	0.502875	0.782511
0	C	0.398967	0.859618	0.18525
0	C	0.608775	0.85932	0.825537
0	C	0.900152	0.357696	0.183761
0	C	0.107571	0.357447	0.827017
0	C	0.321872	0.253428	0.194257
0	C	0.685977	0.253145	0.816607
0	C	0.824013	0.752252	0.193498
0	C	0.1838	0.752041	0.817349
0	C	0.757726	0.206712	0.281299
0	C	0.250095	0.206506	0.729474
0	C	0.258192	0.705388	0.283229
0	C	0.749604	0.705225	0.727552
0	C	0.594508	0.167406	0.44425
0	C	0.413334	0.167353	0.566502
0	C	0.0920823	0.667441	0.444741
0	C	0.915646	0.667304	0.565988
0	C	0.660704	0.766213	0.393209
0	C	0.347352	0.766144	0.617699
0	C	0.15848	0.26611	0.394025
0	C	0.849499	0.265984	0.616892
0	C	0.689203	0.620855	0.423454
0	C	0.318834	0.620781	0.587481
0	C	0.186652	0.120612	0.424287
0	C	0.821283	0.120515	0.586639
0	C	0.685506	0.585252	0.488354
0	C	0.322379	0.585238	0.522518
0	C	0.182783	0.0852621	0.489152
0	C	0.824958	0.0852384	0.521711
0	C	0.652204	0.695278	0.522321
0	C	0.355565	0.695271	0.488493
0	C	0.14968	0.195694	0.523099
0	C	0.857951	0.195683	0.487699
0	C	0.623378	0.840745	0.492124
0	C	0.384444	0.840806	0.518681
0	C	0.121141	0.341244	0.492878
0	C	0.886592	0.341294	0.517927
0	C	0.628259	0.878228	0.427577
0	C	0.379679	0.878204	0.583259
0	C	0.126214	0.378486	0.428379
0	C	0.881648	0.378398	0.582468
0	C	0.36181	0.365865	0.0952745
0	C	0.646151	0.365676	0.915636
0	C	0.864728	0.864031	0.0947843
0	C	0.143182	0.863933	0.916107
0	C	0.353952	0.477979	0.0439535
0	C	0.654042	0.477888	0.966929
0	C	0.857719	0.97679	0.0438475
0	C	0.150256	0.976752	0.967028
0	C	0.295887	0.59761	0.033248
0	C	0.712074	0.597618	0.977584
0	C	0.80033	0.0976846	0.0333657
0	C	0.207599	0.0977131	0.977437
0	C	0.246328	0.605877	0.0746836
0	C	0.761473	0.60592	0.93597
0	C	0.75052	0.106455	0.0745633
0	C	0.25726	0.106537	0.936087
0	C	0.254798	0.49551	0.126753
0	C	0.75295	0.495506	0.883924
0	C	0.75813	0.995385	0.126246
0	C	0.249569	0.995457	0.884412
0	C	0.312292	0.374094	0.136969
0	C	0.695541	0.373942	0.87384
0	C	0.815026	0.872894	0.136311
0	C	0.192754	0.872839	0.87447
0	C	0.217755	0.0394398	0.147044
0	C	0.790174	0.0392617	0.863898
0	C	0.719586	0.539411	0.145932
0	C	0.288315	0.539354	0.865008
0	C	0.142159	0.970259	0.137053
0	C	0.865786	0.970195	0.873874
0	C	0.644257	0.469516	0.136347
0	C	0.363672	0.469528	0.874614
0	C	0.086825	0.0409251	0.164456
0	C	0.921072	0.0408179	0.846427
0	C	0.589245	0.539176	0.164382
0	C	0.418619	0.539165	0.846486
0	C	0.107758	0.180646	0.20214
0	C	0.900083	0.180457	0.808692
0	C	0.61024	0.678608	0.202246
0	C	0.397571	0.67852	0.808581
0	C	0.183696	0.249137	0.212744
0	C	0.824138	0.248869	0.798108
0	C	0.686024	0.747653	0.212579
0	C	0.32178	0.747502	0.798268
0	C	0.239655	0.178031	0.185777
0	C	0.768215	0.177782	0.825127
0	C	0.741671	0.677486	0.185037
0	C	0.266176	0.677308	0.825864
0	C	0.423298	0.443727	0.26897
0	C	0.584599	0.443398	0.741798
0	C	0.925011	0.943646	0.268072
0	C	0.0828278	0.943259	0.742624
0	C	0.464123	0.512229	0.331747
0	C	0.543777	0.511666	0.678978
0	C	0.96549	0.0129089	0.33076
0	C	0.0422549	0.0120822	0.67984
0	C	0.44642	0.464656	0.390173
0	C	0.56147	0.463885	0.620582
0	C	0.948084	0.964915	0.389262
0	C	0.0595483	0.963466	0.621368
0	C	0.388309	0.347598	0.38545
0	C	0.619546	0.346697	0.625369
0	C	0.890844	0.846162	0.384731
0	C	0.116787	0.844652	0.626017
0	C	0.347612	0.278487	0.32261
0	C	0.660222	0.277743	0.688245
0	C	0.8505	0.776298	0.32197
0	C	0.157236	0.775276	0.688855
0	C	0.363961	0.327568	0.263624
0	C	0.643912	0.327036	0.747207
0	C	0.866265	0.826288	0.262862
0	C	0.141554	0.825733	0.747928
0	H	0.53029	0.116856	0.190802
0	H	0.477476	0.116643	0.820008
0	H	0.0317268	0.611625	0.191248
0	H	0.976052	0.611561	0.819532
0	H	0.71586	0.112922	0.387663
0	H	0.292028	0.112993	0.623096
0	H	0.214446	0.614695	0.389543
0	H	0.793387	0.614633	0.621248
0	H	0.362647	0.995229	0.261555
0	H	0.645193	0.995003	0.749314
0	H	0.862267	0.491699	0.259653
0	H	0.145535	0.491519	0.751201
0	H	0.336663	0.837126	0.15245
0	H	0.671029	0.836857	0.85844
0	H	0.838066	0.335491	0.150466
0	H	0.169616	0.335301	0.860415
0	H	0.434976	0.874631	0.150661
0	H	0.572605	0.874152	0.860009
0	H	0.936628	0.373886	0.149601
0	H	0.0709356	0.373447	0.861059
0	H	0.420611	0.753677	0.216127
0	H	0.587246	0.753436	0.79459
0	H	0.921541	0.251175	0.214288
0	H	0.086307	0.25097	0.796426
0	H	0.776405	0.248406	0.238231
0	H	0.23139	0.248286	0.772514
0	H	0.277092	0.747195	0.240293
0	H	0.730671	0.7471	0.77046
0	H	0.761487	0.302365	0.317762
0	H	0.246273	0.302058	0.692952
0	H	0.261588	0.801035	0.319603
0	H	0.746123	0.800767	0.691112
0	H	0.79274	0.102714	0.305332
0	H	0.215127	0.102422	0.705493
0	H	0.293251	0.601531	0.307367
0	H	0.714616	0.601247	0.703474
0	H	0.653139	0.180211	0.483986
0	H	0.354673	0.180103	0.526802
0	H	0.150206	0.679448	0.48518
0	H	0.857497	0.679124	0.525569
0	H	0.579374	0.282532	0.418601
0	H	0.428486	0.282523	0.59211
0	H	0.0778094	0.782835	0.419189
0	H	0.929858	0.782783	0.591475
0	H	0.548614	0.141842	0.468953
0	H	0.459172	0.141726	0.541747
0	H	0.0452805	0.64228	0.46852
0	H	0.962424	0.642163	0.542182
0	H	0.664156	0.792424	0.342635
0	H	0.343968	0.792359	0.668291
0	H	0.161969	0.29217	0.343449
0	H	0.846088	0.292053	0.667491
0	H	0.714218	0.534807	0.396359
0	H	0.293876	0.534717	0.614604
0	H	0.211533	0.0343302	0.397197
0	H	0.796452	0.0342196	0.613766
0	H	0.708642	0.47241	0.512127
0	H	0.29918	0.47241	0.498751
0	H	0.205638	0.972214	0.512921
0	H	0.802033	0.972241	0.497937
0	H	0.648109	0.66814	0.572611
0	H	0.359529	0.668209	0.438153
0	H	0.145537	0.16889	0.573401
0	H	0.861925	0.168997	0.437332
0	H	0.596501	0.923588	0.519409
0	H	0.411237	0.923609	0.491334
0	H	0.0943554	0.424358	0.520161
0	H	0.913305	0.424315	0.490593
0	H	0.406366	0.270806	0.103106
0	H	0.60164	0.270567	0.907894
0	H	0.908774	0.768071	0.102478
0	H	0.0991739	0.767935	0.908487
0	H	0.393329	0.472525	0.0123133
0	H	0.614725	0.472451	0.998618
0	H	0.897236	0.970838	0.0123426
0	H	0.110783	0.970822	0.99858
0	H	0.288977	0.684089	0.992577
0	H	0.719004	0.684152	0.0181765
0	H	0.794124	0.184781	0.993002
0	H	0.213858	0.184825	0.0177744
0	H	0.200779	0.698635	0.0661482
0	H	0.806962	0.698787	0.944409
0	H	0.705458	0.200162	0.0661714
0	H	0.302265	0.200344	0.94439
0	H	0.216259	0.504887	0.159215
0	H	0.791375	0.504916	0.85137
0	H	0.719429	0.00501579	0.15855
0	H	0.288143	0.00514676	0.851999
0	H	0.260396	0.985704	0.124237
0	H	0.747547	0.985512	0.886714
0	H	0.761932	0.486718	0.122554
0	H	0.245977	0.486647	0.888394
0	H	0.126452	0.860675	0.108115
0	H	0.881545	0.860597	0.902846
0	H	0.6285	0.360197	0.10724
0	H	0.379472	0.360251	0.903733
0	H	0.0276365	0.987498	0.156238
0	H	0.980271	0.987418	0.854626
0	H	0.530246	0.485183	0.156509
0	H	0.47761	0.485185	0.854333
0	H	0.0646364	0.237005	0.223147
0	H	0.943151	0.236799	0.787618
0	H	0.567269	0.734266	0.223616
0	H	0.440487	0.734158	0.787146
0	H	0.198708	0.359648	0.241454
0	H	0.809065	0.359303	0.769352
0	H	0.701155	0.85767	0.241607
0	H	0.306594	0.857448	0.7692
0	H	0.43829	0.47999	0.223787
0	H	0.569605	0.479818	0.786958
0	H	0.939834	0.980331	0.222869
0	H	0.0680628	0.980347	0.787797
0	H	0.510108	0.602468	0.335509
0	H	0.497746	0.601842	0.675156
0	H	0.0109992	0.104057	0.334395
0	H	0.996734	0.103206	0.67612
0	H	0.478349	0.518557	0.4391
0	H	0.529542	0.517618	0.571605
0	H	0.979656	0.0196659	0.438088
0	H	0.0278814	0.0177864	0.572455
0	H	0.374878	0.308547	0.43088
0	H	0.632934	0.307397	0.579955
0	H	0.877851	0.806364	0.430255
0	H	0.129677	0.804392	0.580517
0	H	0.303768	0.184788	0.320404
0	H	0.70398	0.183837	0.690496
0	H	0.807455	0.681148	0.31993
0	H	0.200252	0.68	0.690991
