#******************************************
#
# CIF file created by Zeo++
# Zeo++ is an open source package to
# analyze microporous materials
#
#*******************************************

_cell_length_a		9.12205(0)
_cell_length_b		27.2935(0)
_cell_length_c		12.6974(0)
_cell_angle_alpha		90(0)
_cell_angle_beta		115.237(0)
_cell_angle_gamma		90(0)

_symmetry_space_group_name_H-M		'P1'
_symmetry_Int_Tables_number		1
_symmetry_cell_setting		Monoclinic

loop_
_symmetry_equiv_pos_as_xyz
'+x,+y,+z'

loop_
_atom_site_label
_atom_site_type_symbol
_atom_site_fract_x
_atom_site_fract_y
_atom_site_fract_z
0	N	0.237136	0.197151	0.300676
0	N	0.8572	0.694695	0.738888
0	N	0.859951	0.799439	0.740089
0	N	0.239607	0.301906	0.301811
0	N	0.0357889	0.19725	0.62537
0	N	0.0586091	0.694873	0.415509
0	N	0.0607768	0.799326	0.415147
0	N	0.0376331	0.301704	0.624994
0	O	0.477789	0.200665	0.273788
0	O	0.618042	0.698797	0.767202
0	O	0.619357	0.796005	0.767046
0	O	0.478936	0.297845	0.27372
0	O	0.290323	0.199164	0.619623
0	O	0.804188	0.69765	0.420413
0	O	0.806161	0.797467	0.420792
0	O	0.292074	0.298986	0.620053
0	C	0.35265	0.22231	0.288325
0	C	0.743164	0.720237	0.75218
0	C	0.744416	0.774314	0.752505
0	C	0.353763	0.276386	0.288632
0	C	0.114023	0.223604	0.314076
0	C	0.981238	0.720618	0.725619
0	C	0.98295	0.772959	0.726626
0	C	0.115571	0.275945	0.315008
0	C	0.985887	0.198168	0.326097
0	C	0.107041	0.694562	0.711924
0	C	0.111118	0.798367	0.714569
0	C	0.98959	0.301967	0.328566
0	H	0.988312	0.158126	0.328216
0	H	0.101358	0.654559	0.707564
0	H	0.108849	0.838412	0.712538
0	H	0.995123	0.341972	0.332868
0	C	0.862163	0.224357	0.334586
0	C	0.232607	0.72012	0.704546
0	C	0.234676	0.772139	0.705942
0	C	0.864035	0.276374	0.335888
0	H	0.760085	0.205498	0.340759
0	H	0.333015	0.700756	0.697198
0	H	0.336772	0.790974	0.699743
0	H	0.763509	0.295713	0.343121
0	C	0.480459	0.148453	0.271223
0	C	0.615993	0.646554	0.770291
0	C	0.616754	0.848217	0.76953
0	C	0.480886	0.35009	0.270544
0	C	0.555951	0.123219	0.37634
0	C	0.541371	0.62116	0.665335
0	C	0.541235	0.873422	0.664366
0	C	0.55549	0.375506	0.37548
0	H	0.600429	0.142644	0.459088
0	H	0.496731	0.640509	0.582497
0	H	0.496789	0.853986	0.581684
0	H	0.600115	0.356183	0.45831
0	C	0.57195	0.0724975	0.37056
0	C	0.526716	0.570391	0.671372
0	C	0.525213	0.924152	0.670109
0	C	0.570136	0.426264	0.369374
0	H	0.630384	0.0515343	0.45096
0	H	0.469139	0.549284	0.591158
0	H	0.466739	0.945078	0.58965
0	H	0.627731	0.447399	0.449557
0	C	0.513859	0.0486787	0.262909
0	C	0.585234	0.546662	0.779095
0	C	0.583274	0.94799	0.777707
0	C	0.51162	0.449965	0.261619
0	H	0.528367	0.00905664	0.259649
0	H	0.571846	0.506999	0.782622
0	H	0.568737	0.987612	0.780961
0	H	0.525018	0.489623	0.258015
0	C	0.437547	0.0749971	0.158204
0	C	0.660644	0.573142	0.883605
0	C	0.6596	0.921696	0.882474
0	C	0.436149	0.423476	0.157096
0	C	0.41967	0.126023	0.162263
0	C	0.677229	0.624213	0.879379
0	C	0.677523	0.870677	0.878481
0	C	0.419625	0.372398	0.161417
0	H	0.35942	0.147684	0.0834433
0	H	0.736901	0.645988	0.958132
0	H	0.737802	0.849004	0.957323
0	H	0.359989	0.350615	0.0827096
0	C	0.373125	0.0492866	0.0446886
0	C	0.725605	0.547464	0.997113
0	C	0.723906	0.947421	0.995978
0	C	0.371181	0.449148	0.0435974
0	C	0.299987	0.0031059	0.0335281
0	C	0.80004	0.50151	0.00838172
0	C	0.797171	0.993585	0.00724408
0	C	0.296706	0.49511	0.03233
0	H	0.294468	0.986373	0.109776
0	H	0.806276	0.484876	0.932247
0	H	0.802759	0.0103189	0.93102
0	H	0.290604	0.511757	0.108494
0	C	0.234763	0.978663	0.926471
0	C	0.866411	0.477291	0.115688
0	C	0.862287	0.0180195	0.114327
0	C	0.230419	0.519341	0.925046
0	C	0.239745	0.00164681	0.82899
0	C	0.860972	0.500195	0.213112
0	C	0.857177	0.995019	0.211733
0	C	0.235867	0.496435	0.827606
0	H	0.185916	0.983336	0.744581
0	H	0.915637	0.482027	0.297672
0	H	0.910879	0.0133138	0.296167
0	H	0.181255	0.514625	0.743063
0	C	0.31206	0.0477444	0.838803
0	C	0.787104	0.546046	0.203045
0	C	0.78476	0.948927	0.201839
0	C	0.309456	0.450565	0.83762
0	C	0.382031	0.0710622	0.947776
0	C	0.715961	0.569136	0.0938427
0	C	0.714807	0.92564	0.0928316
0	C	0.380541	0.427436	0.946797
0	H	0.444671	0.105971	0.957242
0	H	0.652187	0.603847	0.0841211
0	H	0.652059	0.89075	0.0832741
0	H	0.444005	0.392677	0.956428
0	C	0.16495	0.92679	0.914747
0	C	0.938419	0.42574	0.127623
0	C	0.932197	0.0698868	0.126073
0	C	0.158223	0.570875	0.913024
0	C	0.00652564	0.922867	0.80284
0	C	0.0966914	0.422465	0.23975
0	C	0.0906194	0.0737881	0.238025
0	C	0.999949	0.574097	0.800871
0	H	0.952118	0.886312	0.794825
0	H	0.153404	0.386236	0.247916
0	H	0.145423	0.110336	0.245942
0	H	0.942953	0.610295	0.792743
0	H	0.0256239	0.928849	0.724386
0	H	0.0771347	0.42808	0.318131
0	H	0.0712847	0.0679522	0.31645
0	H	0.0195663	0.568566	0.722483
0	H	0.916291	0.949306	0.802983
0	H	0.185408	0.449478	0.239637
0	H	0.180581	0.047238	0.238061
0	H	0.911432	0.547012	0.800924
0	C	0.294111	0.891624	0.909836
0	C	0.810043	0.389985	0.131554
0	C	0.803009	0.10508	0.130856
0	C	0.286467	0.606664	0.909047
0	H	0.409097	0.895117	0.987731
0	H	0.694616	0.393853	0.0542071
0	H	0.688199	0.101641	0.0528029
0	H	0.402003	0.602792	0.986297
0	H	0.319634	0.898895	0.834461
0	H	0.785214	0.396311	0.207577
0	H	0.777076	0.0977688	0.206035
0	H	0.311073	0.600411	0.832907
0	H	0.255009	0.853366	0.904904
0	H	0.849263	0.351914	0.134384
0	H	0.84223	0.143296	0.135982
0	H	0.247087	0.644786	0.906352
0	C	0.128791	0.912635	0.0186794
0	C	0.976213	0.412076	0.0241272
0	C	0.968469	0.0840223	0.0221734
0	C	0.12029	0.58453	0.0164499
0	H	0.046544	0.938817	0.031323
0	H	0.0573209	0.438779	0.0117945
0	H	0.0504881	0.0577801	0.00945273
0	H	0.0394617	0.557759	0.0289037
0	H	0.239146	0.910276	0.100039
0	H	0.866436	0.409334	0.942529
0	H	0.858141	0.086469	0.940824
0	H	0.23002	0.587407	0.0980355
0	H	0.0699938	0.876635	0.00456898
0	H	0.0369629	0.376385	0.0385794
0	H	0.0275643	0.119982	0.0363948
0	H	0.0590855	0.620159	0.0018247
0	C	0.312201	0.0728308	0.735423
0	C	0.786388	0.571151	0.306209
0	C	0.784518	0.923814	0.305163
0	C	0.310098	0.425462	0.734416
0	C	0.32401	0.0464836	0.644138
0	C	0.775531	0.54484	0.397874
0	C	0.772798	0.950132	0.396518
0	C	0.321204	0.451781	0.642833
0	H	0.330963	0.00661237	0.648257
0	H	0.770876	0.504944	0.394596
0	H	0.765893	0.990002	0.392459
0	H	0.326066	0.491667	0.646216
0	C	0.325091	0.0707716	0.547582
0	C	0.772559	0.569198	0.493753
0	C	0.771725	0.925819	0.493065
0	C	0.324169	0.427414	0.546936
0	H	0.33513	0.0498675	0.477666
0	H	0.762703	0.548355	0.563815
0	H	0.761693	0.946709	0.563021
0	H	0.334142	0.44826	0.476887
0	C	0.310851	0.121763	0.538211
0	C	0.784697	0.620233	0.502322
0	C	0.785945	0.874842	0.502391
0	C	0.311879	0.376394	0.538312
0	H	0.308907	0.141138	0.462319
0	H	0.785208	0.639636	0.577635
0	H	0.788015	0.855488	0.578181
0	H	0.31137	0.357029	0.463013
0	C	0.295942	0.146986	0.628737
0	C	0.799339	0.645421	0.411668
0	C	0.80066	0.849641	0.411743
0	C	0.296966	0.35121	0.628859
0	C	0.297925	0.124101	0.727526
0	C	0.798689	0.622466	0.313355
0	C	0.798614	0.872535	0.312949
0	C	0.297483	0.374157	0.727143
0	H	0.283707	0.14562	0.794818
0	H	0.812591	0.643953	0.245898
0	H	0.812595	0.85102	0.245569
0	H	0.283311	0.352667	0.794493
0	C	0.158874	0.222157	0.622989
0	C	0.9364	0.720366	0.417555
0	C	0.937611	0.774451	0.417491
0	C	0.159885	0.276242	0.622936
0	C	0.905788	0.223633	0.628238
0	C	0.189586	0.720573	0.412521
0	C	0.190729	0.772902	0.412311
0	C	0.906741	0.275963	0.628004
0	C	0.772043	0.198173	0.632209
0	C	0.321995	0.694297	0.408729
0	C	0.324619	0.798321	0.4084
0	C	0.77418	0.302189	0.631773
0	H	0.774588	0.158197	0.634252
0	H	0.317438	0.654334	0.406965
0	H	0.322253	0.838296	0.406399
0	H	0.778532	0.342157	0.633488
0	C	0.644419	0.224495	0.634128
0	C	0.450784	0.719858	0.406604
0	C	0.452126	0.771926	0.406472
0	C	0.645498	0.276564	0.633934
0	H	0.539483	0.20585	0.636475
0	H	0.554715	0.700608	0.404305
0	H	0.557164	0.790525	0.404163
0	H	0.541474	0.295769	0.636207
