#******************************************
#
# CIF file created by Zeo++
# Zeo++ is an open source package to
# analyze microporous materials
#
#*******************************************

_cell_length_a		12.8177(0)
_cell_length_b		5.29264(0)
_cell_length_c		18.8877(0)
_cell_angle_alpha		90(0)
_cell_angle_beta		97.372(0)
_cell_angle_gamma		90(0)

_symmetry_space_group_name_H-M		'P1'
_symmetry_Int_Tables_number		1
_symmetry_cell_setting		Monoclinic

loop_
_symmetry_equiv_pos_as_xyz
'+x,+y,+z'

loop_
_atom_site_label
_atom_site_type_symbol
_atom_site_fract_x
_atom_site_fract_y
_atom_site_fract_z
0	O	0.75501	0.0808143	0.126456
0	O	0.24862	0.571401	0.870235
0	O	0.980003	0.542728	0.283084
0	O	0.0202721	0.0377318	0.713401
0	O	0.856645	0.593284	0.362436
0	O	0.143684	0.0863083	0.634115
0	O	0.586505	0.579011	0.304668
0	O	0.414126	0.0681965	0.691902
0	O	0.517555	0.853781	0.215719
0	O	0.484182	0.34704	0.779492
0	N	0.763973	0.766872	0.207719
0	N	0.237338	0.25837	0.78858
0	C	0.792401	0.506859	0.233487
0	C	0.208017	0.998678	0.762841
0	H	0.73917	0.367157	0.200603
0	H	0.260789	0.857908	0.79561
0	C	0.769978	0.504468	0.31223
0	C	0.230331	0.995736	0.68406
0	H	0.747025	0.31324	0.329587
0	H	0.252581	0.804095	0.666665
0	C	0.68549	0.709424	0.317447
0	C	0.315326	0.199406	0.678779
0	H	0.691386	0.796466	0.371362
0	H	0.309819	0.28579	0.624797
0	C	0.705321	0.904968	0.259194
0	C	0.295824	0.395923	0.736844
0	H	0.760112	0.0518262	0.286698
0	H	0.240872	0.542781	0.709463
0	C	0.906816	0.43572	0.226976
0	C	0.0933915	0.929378	0.769371
0	H	0.91713	0.227717	0.226468
0	H	0.0826054	0.721519	0.769591
0	H	0.935234	0.51638	0.178608
0	H	0.0653433	0.00991215	0.81785
0	C	0.957431	0.484783	0.353686
0	C	0.0428953	0.977942	0.642915
0	H	0.954328	0.277151	0.361714
0	H	0.0461326	0.770013	0.635423
0	C	0.0387976	0.625272	0.403397
0	C	0.961573	0.115934	0.592641
0	C	0.0752043	0.860767	0.383299
0	C	0.924185	0.351501	0.611766
0	H	0.042199	0.942047	0.332057
0	H	0.95682	0.436314	0.662654
0	C	0.154314	0.987202	0.427639
0	C	0.844392	0.473346	0.566827
0	H	0.185327	0.166204	0.410774
0	H	0.812481	0.652167	0.582966
0	C	0.195428	0.877292	0.492686
0	C	0.803859	0.359556	0.502209
0	H	0.255422	0.976672	0.528365
0	H	0.74299	0.455167	0.466288
0	C	0.159255	0.64152	0.5126
0	C	0.841602	0.124411	0.483123
0	H	0.191955	0.555254	0.562971
0	H	0.810029	0.0347482	0.432967
0	C	0.0804602	0.514051	0.468383
0	C	0.920671	0.00085467	0.52805
0	H	0.0503339	0.334187	0.485518
0	H	0.951388	0.820338	0.511885
0	C	0.497457	0.744994	0.281603
0	C	0.503392	0.235031	0.713837
0	H	0.492915	0.891527	0.323049
0	H	0.5072	0.379247	0.671692
0	C	0.40327	0.575492	0.266801
0	C	0.598015	0.0668757	0.728882
0	C	0.319304	0.604296	0.307038
0	C	0.681065	0.093071	0.687738
0	H	0.318714	0.757852	0.345404
0	H	0.680172	0.242073	0.647852
0	C	0.236097	0.432337	0.297658
0	C	0.765465	0.924646	0.698144
0	H	0.169315	0.455714	0.3275
0	H	0.831327	0.946131	0.667408
0	C	0.237694	0.230269	0.250034
0	C	0.766448	0.729118	0.748067
0	H	0.174919	0.0899557	0.245513
0	H	0.830582	0.592377	0.753766
0	C	0.31903	0.208738	0.207776
0	C	0.685717	0.709653	0.790909
0	H	0.319828	0.0531186	0.169792
0	H	0.686799	0.559258	0.830645
0	C	0.400319	0.386697	0.214696
0	C	0.602689	0.882843	0.78244
0	H	0.46207	0.379453	0.179955
0	H	0.540973	0.87583	0.817203
0	C	0.603359	0.0306382	0.224959
0	C	0.397942	0.52265	0.770502
0	H	0.582315	0.194163	0.25768
0	H	0.418409	0.686376	0.737648
0	H	0.606704	0.0956075	0.169223
0	H	0.395146	0.587966	0.826251
0	C	0.769782	0.853533	0.138408
0	C	0.232911	0.344595	0.858072
0	C	0.79433	0.669881	0.0838875
0	C	0.207941	0.16171	0.912722
0	H	0.768642	0.474966	0.090509
0	H	0.232615	0.965824	0.90616
0	C	0.839667	0.741722	0.0270163
0	C	0.163454	0.23644	0.969685
0	H	0.864869	0.939378	0.0217847
0	H	0.139499	0.435191	0.974654
0	C	0.860013	0.571336	0.968905
0	C	0.142178	0.0690566	0.0282082
0	C	0.803856	0.345319	0.95525
0	C	0.196857	0.841373	0.0425502
0	H	0.744462	0.29016	0.989107
0	H	0.255871	0.782177	0.00887865
0	C	0.822962	0.189667	0.898329
0	C	0.176847	0.689263	0.0999976
0	H	0.777041	0.0172217	0.886951
0	H	0.221586	0.515351	0.111807
0	C	0.898917	0.258776	0.855183
0	C	0.101646	0.764216	0.143081
0	H	0.91315	0.138239	0.810329
0	H	0.0866994	0.646821	0.188402
0	C	0.955793	0.483417	0.868848
0	C	0.0462085	0.990244	0.12872
0	H	0.0158074	0.534354	0.835222
0	H	0.986485	0.0455011	0.162136
0	C	0.936376	0.640821	0.92498
0	C	0.0663535	0.143874	0.0719491
0	H	0.981542	0.814441	0.935702
0	H	0.0219249	0.318145	0.0605208
