#******************************************
#
# CIF file created by Zeo++
# Zeo++ is an open source package to
# analyze microporous materials
#
#*******************************************

_cell_length_a		17.8936(0)
_cell_length_b		18.716(0)
_cell_length_c		8.26371(0)
_cell_angle_alpha		90(0)
_cell_angle_beta		112.353(0)
_cell_angle_gamma		90(0)

_symmetry_space_group_name_H-M		'P1'
_symmetry_Int_Tables_number		1
_symmetry_cell_setting		Monoclinic

loop_
_symmetry_equiv_pos_as_xyz
'+x,+y,+z'

loop_
_atom_site_label
_atom_site_type_symbol
_atom_site_fract_x
_atom_site_fract_y
_atom_site_fract_z
0	C	0.130167	0.242223	0.771865
0	C	0.861695	0.242533	0.71796
0	C	0.862077	0.753688	0.218947
0	C	0.130514	0.75334	0.272811
0	C	0.627443	0.740214	0.772197
0	C	0.364433	0.740533	0.717683
0	C	0.364802	0.2557	0.218613
0	C	0.627781	0.255341	0.273094
0	C	0.110816	0.251579	0.917089
0	C	0.881071	0.25192	0.572719
0	C	0.881412	0.744327	0.0737026
0	C	0.111121	0.743957	0.418031
0	C	0.608116	0.749538	0.917429
0	C	0.383773	0.749884	0.572412
0	C	0.384112	0.246369	0.0733601
0	C	0.608418	0.245992	0.418332
0	H	0.0715548	0.295339	0.923141
0	H	0.919825	0.295913	0.565626
0	H	0.92064	0.700541	0.0676368
0	H	0.0723634	0.699969	0.42511
0	H	0.568943	0.793368	0.923514
0	H	0.422433	0.793942	0.565282
0	H	0.423252	0.202514	0.0672608
0	H	0.569752	0.201942	0.425453
0	C	0.140448	0.203501	0.0609421
0	C	0.852227	0.203433	0.429654
0	C	0.851777	0.792391	0.929832
0	C	0.139976	0.792444	0.561111
0	C	0.637678	0.701404	0.0611477
0	C	0.354996	0.701348	0.429477
0	C	0.354545	0.294489	0.929622
0	C	0.637207	0.294531	0.56129
0	H	0.124001	0.212611	0.173567
0	H	0.869325	0.212327	0.317901
0	H	0.868192	0.783272	0.81717
0	H	0.122858	0.783555	0.672835
0	H	0.621246	0.710522	0.173781
0	H	0.372072	0.710249	0.317701
0	H	0.370946	0.285363	0.816951
0	H	0.620109	0.285633	0.673031
0	C	0.188151	0.146757	0.0562526
0	C	0.804617	0.146573	0.433942
0	C	0.804061	0.849126	0.93453
0	C	0.187601	0.849298	0.556831
0	C	0.685347	0.64466	0.0563214
0	C	0.30742	0.644483	0.43389
0	C	0.30686	0.351223	0.934455
0	C	0.684798	0.351387	0.556883
0	H	0.209441	0.108651	0.164177
0	H	0.784038	0.108123	0.326788
0	H	0.78275	0.887211	0.82656
0	H	0.208188	0.887751	0.663992
0	H	0.706642	0.606535	0.1642
0	H	0.28684	0.606014	0.326779
0	H	0.285543	0.389325	0.826529
0	H	0.705389	0.389859	0.663998
0	C	0.211398	0.136814	0.9099
0	C	0.780512	0.13694	0.579013
0	C	0.780811	0.859075	0.0808729
0	C	0.211684	0.858936	0.411738
0	C	0.708567	0.634742	0.909915
0	C	0.283349	0.634879	0.579023
0	C	0.283639	0.361147	0.0808531
0	C	0.708851	0.361	0.411736
0	C	0.183646	0.185316	0.767175
0	C	0.807977	0.185599	0.721492
0	C	0.808579	0.810581	0.22362
0	C	0.184229	0.810273	0.269264
0	C	0.680824	0.683267	0.767232
0	C	0.310799	0.683555	0.721439
0	C	0.311401	0.312632	0.223558
0	C	0.681404	0.312313	0.269306
0	C	0.210646	0.176579	0.625986
0	C	0.780518	0.176759	0.861933
0	C	0.781571	0.819315	0.364791
0	C	0.211663	0.819129	0.128792
0	C	0.707812	0.674536	0.62602
0	C	0.283357	0.674717	0.861921
0	C	0.284404	0.321357	0.364757
0	C	0.70883	0.321168	0.128809
0	H	0.191161	0.214753	0.518147
0	H	0.799966	0.214865	0.969811
0	H	0.801046	0.781121	0.472597
0	H	0.19221	0.781025	0.0209129
0	H	0.688348	0.712707	0.518171
0	H	0.302781	0.712821	0.969803
0	H	0.303857	0.283166	0.472567
0	H	0.689398	0.283068	0.020922
0	C	0.261475	0.121578	0.626785
0	C	0.729555	0.121788	0.860535
0	C	0.730725	0.874298	0.364002
0	C	0.262648	0.874087	0.130214
0	C	0.758643	0.619541	0.626785
0	C	0.232391	0.619751	0.860547
0	C	0.233558	0.376335	0.364003
0	C	0.759815	0.376124	0.130202
0	H	0.282318	0.115031	0.519647
0	H	0.708583	0.11516	0.967418
0	H	0.709857	0.88084	0.471102
0	H	0.2836	0.880723	0.0233025
0	H	0.779481	0.612997	0.519633
0	H	0.211422	0.613125	0.967441
0	H	0.212694	0.382872	0.471116
0	H	0.780761	0.382758	0.0232772
0	C	0.288324	0.0722535	0.768645
0	C	0.702914	0.0724428	0.718741
0	C	0.703865	0.923611	0.22211
0	C	0.289304	0.923433	0.272036
0	C	0.785505	0.570225	0.768647
0	C	0.205738	0.570415	0.718749
0	C	0.206686	0.425641	0.222113
0	C	0.786482	0.42546	0.272026
0	H	0.329226	0.0295711	0.766023
0	H	0.661927	0.0297564	0.720874
0	H	0.662944	0.966279	0.224723
0	H	0.3303	0.966116	0.269912
0	H	0.826422	0.527557	0.766024
0	H	0.164733	0.527745	0.720874
0	H	0.165751	0.468295	0.22473
0	H	0.827495	0.468127	0.269913
0	C	0.263641	0.0794007	0.906001
0	C	0.728176	0.0794999	0.582251
0	C	0.728528	0.916464	0.0847318
0	C	0.264016	0.916383	0.40848
0	C	0.760819	0.577347	0.906001
0	C	0.231002	0.57745	0.582263
0	C	0.231348	0.418518	0.0847304
0	C	0.761192	0.418431	0.408468
0	H	0.283611	0.0419276	0.0153131
0	H	0.708897	0.041627	0.473898
0	H	0.708536	0.953916	0.975379
0	H	0.283286	0.95426	0.516836
0	H	0.780793	0.539868	0.0153122
0	H	0.211719	0.539573	0.473907
0	H	0.211351	0.455975	0.975378
0	H	0.780465	0.456313	0.516827
0	C	0.0934904	0.28778	0.619665
0	C	0.898577	0.287859	0.870874
0	C	0.898725	0.708106	0.371103
0	C	0.0936315	0.708021	0.119895
0	C	0.590995	0.78599	0.620397
0	C	0.401096	0.786064	0.870223
0	C	0.401226	0.209902	0.370382
0	C	0.591113	0.209819	0.120538
0	C	0.0502097	0.269243	0.451161
0	C	0.941827	0.269366	0.0395329
0	C	0.942006	0.726644	0.539626
0	C	0.0503826	0.72651	0.951222
0	C	0.548294	0.767592	0.451558
0	C	0.443798	0.767709	0.0392037
0	C	0.44392	0.228301	0.539227
0	C	0.548415	0.228171	0.951564
0	H	0.037818	0.214767	0.403877
0	H	0.954361	0.214954	0.0874133
0	H	0.9544	0.781117	0.586927
0	H	0.037844	0.780919	0.903329
0	H	0.535612	0.713165	0.403996
0	H	0.456634	0.713339	0.0873226
0	H	0.456597	0.282729	0.586802
0	H	0.535572	0.282538	0.903422
0	C	0.0200739	0.329906	0.335697
0	C	0.972076	0.329956	0.155479
0	C	0.972126	0.665971	0.655055
0	C	0.0201421	0.665924	0.835302
0	C	0.519176	0.828388	0.336165
0	C	0.473033	0.828425	0.155102
0	C	0.473033	0.167502	0.654615
0	C	0.519176	0.167459	0.835656
0	C	0.0429211	0.396402	0.421395
0	C	0.949458	0.396559	0.0704049
0	C	0.949281	0.599487	0.569382
0	C	0.0427507	0.59932	0.920334
0	C	0.541295	0.89483	0.422404
0	C	0.451125	0.894992	0.069522
0	C	0.450909	0.101058	0.568362
0	C	0.541077	0.100883	0.921223
0	C	0.0205231	0.461991	0.335186
0	C	0.972052	0.462039	0.157351
0	C	0.971676	0.533887	0.655573
0	C	0.020149	0.533831	0.833379
0	C	0.5196	0.960415	0.335766
0	C	0.473031	0.960451	0.156893
0	C	0.472594	0.0354728	0.654964
0	C	0.519176	0.0354327	0.833862
0	H	0.0407366	0.512223	0.405618
0	H	0.952044	0.5124	0.0875849
0	H	0.951456	0.483656	0.585135
0	H	0.0401613	0.483476	0.903151
0	H	0.538887	0.010716	0.406519
0	H	0.453967	0.0108846	0.0868029
0	H	0.453321	0.985169	0.584241
0	H	0.538232	0.98499	0.90391
0	S	0.100063	0.381875	0.643868
0	S	0.892396	0.382108	0.847546
0	S	0.892148	0.614016	0.346903
0	S	0.0998098	0.613771	0.143198
0	S	0.597293	0.880091	0.645321
0	S	0.395173	0.880321	0.846232
0	S	0.394921	0.115804	0.345441
0	S	0.597035	0.115555	0.144524
