#******************************************
#
# CIF file created by Zeo++
# Zeo++ is an open source package to
# analyze microporous materials
#
#*******************************************

_cell_length_a		19.2835(0)
_cell_length_b		19.5634(0)
_cell_length_c		13.1352(0)
_cell_angle_alpha		90(0)
_cell_angle_beta		90(0)
_cell_angle_gamma		120.321(0)

_symmetry_space_group_name_H-M		'P1'
_symmetry_Int_Tables_number		1
_symmetry_cell_setting		Monoclinic

loop_
_symmetry_equiv_pos_as_xyz
'+x,+y,+z'

loop_
_atom_site_label
_atom_site_type_symbol
_atom_site_fract_x
_atom_site_fract_y
_atom_site_fract_z
0	C	0.971631	0.482415	0.550158
0	C	0.526401	0.480656	0.545891
0	C	0.526476	0.0358353	0.548222
0	C	0.639515	0.81466	0.88219
0	C	0.193385	0.814582	0.881757
0	C	0.193009	0.37107	0.882785
0	C	0.301453	0.147803	0.213966
0	C	0.857362	0.145539	0.214551
0	C	0.864475	0.703392	0.214746
0	C	0.0492033	0.552376	0.537408
0	C	0.456356	0.488008	0.532262
0	C	0.519982	0.959848	0.53544
0	C	0.717105	0.884647	0.869384
0	C	0.122926	0.821265	0.868117
0	C	0.185058	0.294362	0.869363
0	C	0.378967	0.217843	0.201141
0	C	0.787004	0.152294	0.200694
0	C	0.856779	0.626768	0.201819
0	C	0.101274	0.580136	0.620968
0	C	0.428309	0.511903	0.615406
0	C	0.496093	0.908453	0.618891
0	C	0.769462	0.912333	0.952633
0	C	0.0946304	0.844918	0.951118
0	C	0.160784	0.242799	0.952612
0	C	0.43102	0.245949	0.284703
0	C	0.758589	0.175916	0.283696
0	C	0.832777	0.575546	0.285475
0	N	0.0847928	0.544162	0.714751
0	N	0.463927	0.53112	0.709728
0	N	0.47616	0.924357	0.712839
0	N	0.753138	0.876371	0.0464592
0	N	0.130331	0.864372	0.0454433
0	N	0.141832	0.259042	0.0470149
0	N	0.414522	0.210474	0.378811
0	N	0.794207	0.195438	0.378009
0	N	0.813588	0.591907	0.379599
0	C	0.0107551	0.47897	0.723237
0	C	0.528986	0.522258	0.719185
0	C	0.48421	0.99711	0.721541
0	C	0.67892	0.811477	0.0552456
0	C	0.195612	0.855904	0.0550111
0	C	0.151307	0.332324	0.0562946
0	C	0.340369	0.145495	0.387557
0	C	0.859541	0.187057	0.387674
0	C	0.822615	0.665063	0.388324
0	C	0.952178	0.445431	0.645282
0	C	0.562846	0.497692	0.641751
0	C	0.508898	0.0548234	0.643701
0	C	0.620111	0.777933	0.977445
0	C	0.229729	0.831597	0.977594
0	C	0.176378	0.390339	0.978613
0	C	0.281902	0.111441	0.30946
0	C	0.893727	0.162731	0.310374
0	C	0.847634	0.722857	0.310334
0	C	0.877429	0.375506	0.688422
0	C	0.632347	0.492671	0.686211
0	C	0.513705	0.128458	0.687407
0	C	0.545102	0.708443	0.0207023
0	C	0.299493	0.82693	0.021705
0	C	0.182109	0.464337	0.0224758
0	C	0.207216	0.0414725	0.352594
0	C	0.963702	0.158517	0.354615
0	C	0.852968	0.79684	0.353693
0	C	0.908911	0.363605	0.794335
0	C	0.644378	0.535777	0.792102
0	C	0.470203	0.0972755	0.793493
0	C	0.576669	0.696452	0.126514
0	C	0.31153	0.870217	0.127401
0	C	0.138391	0.433152	0.128436
0	C	0.238758	0.0301286	0.458818
0	C	0.975576	0.201915	0.460243
0	C	0.809498	0.765957	0.459878
0	O	0.987285	0.439217	0.813485
0	O	0.568308	0.538066	0.810142
0	O	0.467646	0.0198926	0.81198
0	O	0.655296	0.77185	0.145621
0	O	0.235153	0.871943	0.145849
0	O	0.135593	0.355641	0.147076
0	O	0.316615	0.106268	0.478147
0	O	0.898966	0.203181	0.478555
0	O	0.806603	0.688425	0.47879
0	C	0.0754676	0.593706	0.438899
0	C	0.4149	0.472778	0.433508
0	C	0.536388	0.934539	0.437127
0	C	0.742274	0.925753	0.770676
0	C	0.0819252	0.805446	0.769016
0	C	0.200586	0.269183	0.770435
0	C	0.404914	0.258707	0.102354
0	C	0.746323	0.137019	0.101414
0	C	0.871449	0.600749	0.102987
0	C	0.0225812	0.605482	0.37776
0	C	0.403148	0.409162	0.371646
0	C	0.601853	0.987293	0.376575
0	C	0.688338	0.936899	0.710822
0	C	0.0720478	0.742232	0.707687
0	C	0.265902	0.322129	0.709766
0	C	0.351695	0.269901	0.0410757
0	C	0.736694	0.0743904	0.0390658
0	C	0.935484	0.653198	0.0403114
0	C	0.0486411	0.645021	0.284749
0	C	0.363131	0.395447	0.278642
0	C	0.616956	0.962	0.284104
0	C	0.71285	0.975789	0.617237
0	C	0.0336348	0.728244	0.613489
0	C	0.280371	0.297319	0.616544
0	C	0.377538	0.309244	0.947932
0	C	0.69837	0.0610915	0.944877
0	C	0.948367	0.62745	0.946809
0	C	0.127728	0.67408	0.252296
0	C	0.333495	0.444128	0.247028
0	C	0.567731	0.883851	0.251506
0	C	0.79159	0.0046433	0.582934
0	C	0.00366599	0.776187	0.580101
0	C	0.230606	0.219465	0.58324
0	C	0.456689	0.338555	0.9155
0	C	0.668054	0.109071	0.912614
0	C	0.898462	0.549077	0.915519
0	C	0.180641	0.66268	0.312895
0	C	0.344932	0.50743	0.308273
0	C	0.502494	0.831155	0.311365
0	C	0.845429	0.993981	0.642257
0	C	0.0128399	0.838837	0.641038
0	C	0.165491	0.166639	0.643144
0	C	0.509814	0.327423	0.976031
0	C	0.677149	0.171239	0.974448
0	C	0.834861	0.496577	0.977674
0	C	0.154794	0.622435	0.405443
0	C	0.385786	0.522154	0.400726
0	C	0.486489	0.856227	0.403422
0	C	0.821127	0.95442	0.735453
0	C	0.0520588	0.853824	0.734789
0	C	0.150142	0.191195	0.736056
0	C	0.484177	0.287379	0.0687268
0	C	0.716457	0.185617	0.0680448
0	C	0.82092	0.522173	0.0706212
0	O	0.922537	0.455397	0.469744
0	O	0.553915	0.459138	0.466051
0	O	0.547584	0.0840308	0.467779
0	O	0.590356	0.787478	0.801917
0	O	0.221412	0.793804	0.801829
0	O	0.214453	0.419497	0.802611
0	O	0.25259	0.12029	0.13346
0	O	0.885167	0.124338	0.13477
0	O	0.886066	0.751626	0.134303
0	C	0.811062	0.395161	0.705585
0	C	0.610368	0.406797	0.703415
0	C	0.60076	0.193747	0.704185
0	C	0.479117	0.72875	0.0373061
0	C	0.278086	0.741187	0.0384956
0	C	0.269399	0.529241	0.0387147
0	C	0.14038	0.0606595	0.368484
0	C	0.942591	0.0729351	0.372133
0	C	0.940035	0.862051	0.370445
0	C	0.846121	0.301335	0.619573
0	C	0.708451	0.535489	0.618649
0	C	0.470005	0.159704	0.619405
0	C	0.512735	0.633798	0.95243
0	C	0.375588	0.869725	0.954056
0	C	0.139127	0.496609	0.954816
0	C	0.176581	0.967424	0.283839
0	C	0.0394711	0.201535	0.286603
0	C	0.809758	0.828451	0.285337
0	O	0.809965	0.316122	0.531728
0	O	0.693192	0.485207	0.530402
0	O	0.520999	0.195098	0.531021
0	O	0.477365	0.6489	0.863956
0	O	0.360108	0.819428	0.865676
0	O	0.190159	0.531612	0.866357
0	O	0.140416	0.981749	0.195494
0	O	0.0242792	0.151302	0.198164
0	O	0.860895	0.863507	0.196872
0	O	0.781928	0.237365	0.672148
0	O	0.771704	0.534448	0.672415
0	O	0.470949	0.22326	0.672537
0	O	0.447768	0.57106	0.00562184
0	O	0.438467	0.868079	0.00790397
0	O	0.141467	0.560673	0.00842564
0	O	0.112809	0.903318	0.336548
0	O	0.10286	0.200929	0.340374
0	O	0.810908	0.892033	0.338539
0	C	0.766817	0.159791	0.642147
0	C	0.851467	0.596413	0.643668
0	C	0.407954	0.239054	0.643468
0	C	0.429664	0.492559	0.975595
0	C	0.518501	0.928746	0.978223
0	C	0.0798163	0.578381	0.979506
0	C	0.0944783	0.82569	0.301862
0	C	0.182555	0.259222	0.306131
0	C	0.751973	0.912031	0.304314
0	C	0.928237	0.298257	0.803343
0	C	0.711642	0.620397	0.801505
0	C	0.384563	0.0786937	0.80302
0	C	0.595422	0.630661	0.134838
0	C	0.378521	0.95504	0.135639
0	C	0.0527603	0.414812	0.136993
0	C	0.259545	0.965922	0.468152
0	C	0.041804	0.287018	0.468892
0	C	0.723895	0.747433	0.469454
0	C	0.997547	0.306732	0.742387
0	C	0.70427	0.6811	0.741017
0	C	0.32262	0.00986929	0.743291
0	C	0.662569	0.637019	0.0709703
0	C	0.372091	0.0148335	0.0721069
0	C	0.991285	0.348205	0.0738494
0	C	0.326957	0.973307	0.403911
0	C	0.0350251	0.346339	0.404501
0	C	0.662263	0.680967	0.406236
0	C	0.88514	0.237761	0.867408
0	C	0.772868	0.637884	0.865355
0	C	0.367495	0.122222	0.866261
0	C	0.553144	0.570935	0.200288
0	C	0.43917	0.973375	0.200885
0	C	0.0351787	0.457037	0.201911
0	C	0.219377	0.907125	0.535527
0	C	0.101591	0.306077	0.535811
0	C	0.706419	0.788896	0.535797
0	C	0.898519	0.170315	0.886337
0	C	0.842108	0.718664	0.884627
0	C	0.285939	0.109978	0.885342
0	C	0.565215	0.50249	0.217471
0	C	0.508809	0.0541917	0.218444
0	C	0.953735	0.445432	0.2194
0	C	0.234213	0.840678	0.555069
0	C	0.169989	0.387384	0.554693
0	C	0.624813	0.776466	0.555022
0	H	0.160666	0.634124	0.615212
0	H	0.374226	0.517078	0.608792
0	H	0.49146	0.850154	0.612969
0	H	0.828956	0.966169	0.946641
0	H	0.0403835	0.84977	0.944632
0	H	0.154984	0.184041	0.946217
0	H	0.490493	0.299828	0.278753
0	H	0.704288	0.180691	0.277154
0	H	0.827368	0.516908	0.279541
0	H	0.871496	0.364026	0.858253
0	H	0.642885	0.498098	0.856168
0	H	0.508683	0.13396	0.857369
0	H	0.539438	0.697011	0.190527
0	H	0.31059	0.832915	0.191588
0	H	0.176708	0.469761	0.192409
0	H	0.200779	0.0300261	0.522397
0	H	0.974898	0.164741	0.524505
0	H	0.848156	0.802751	0.523575
0	H	0.96072	0.582546	0.402784
0	H	0.426454	0.371212	0.396172
0	H	0.640202	0.0483902	0.401655
0	H	0.626733	0.91378	0.737244
0	H	0.095796	0.704946	0.733469
0	H	0.304566	0.383105	0.735399
0	H	0.289725	0.246556	0.0660807
0	H	0.76057	0.0370088	0.0639811
0	H	0.974241	0.714519	0.0645694
0	H	0.00690691	0.652922	0.237013
0	H	0.3552	0.346585	0.230352
0	H	0.667305	0.00352367	0.236751
0	H	0.670358	0.983128	0.570527
0	H	0.0273944	0.679823	0.565586
0	H	0.330617	0.339048	0.569297
0	H	0.335627	0.316811	0.899991
0	H	0.69234	0.0133271	0.896021
0	H	0.997335	0.668834	0.897716
0	H	0.148278	0.705274	0.179762
0	H	0.301764	0.433182	0.174604
0	H	0.57985	0.863951	0.179546
0	H	0.810893	0.0351728	0.509796
0	H	0.973439	0.765218	0.506521
0	H	0.242311	0.200012	0.510709
0	H	0.477096	0.369763	0.842962
0	H	0.63764	0.0985043	0.839229
0	H	0.908659	0.528773	0.842631
0	H	0.24216	0.684921	0.287638
0	H	0.322227	0.545622	0.283643
0	H	0.463755	0.770367	0.286004
0	H	0.906552	0.0161338	0.615377
0	H	0.989745	0.876387	0.614998
0	H	0.126348	0.106182	0.617042
0	H	0.571287	0.349714	0.950536
0	H	0.653898	0.208884	0.949261
0	H	0.795777	0.435624	0.953255
0	H	0.196219	0.612953	0.451185
0	H	0.395408	0.572363	0.446885
0	H	0.434884	0.814977	0.448632
0	H	0.863265	0.945322	0.780166
0	H	0.0599632	0.903546	0.780674
0	H	0.0986176	0.149784	0.781242
0	H	0.525585	0.277871	0.114419
0	H	0.72453	0.235085	0.114595
0	H	0.770341	0.481194	0.11745
0	H	0.869613	0.398922	0.485618
0	H	0.610683	0.462827	0.483032
0	H	0.543523	0.13615	0.484105
0	H	0.537322	0.730863	0.818103
0	H	0.278632	0.797944	0.818901
0	H	0.211203	0.472197	0.819448
0	H	0.199728	0.0634114	0.149426
0	H	0.942464	0.128768	0.151669
0	H	0.882498	0.804145	0.150632
0	H	0.757484	0.344649	0.738942
0	H	0.66065	0.403659	0.737606
0	H	0.603818	0.246589	0.737747
0	H	0.425468	0.67869	0.0712624
0	H	0.328548	0.738297	0.0725306
0	H	0.273035	0.58228	0.0725396
0	H	0.0870383	0.0104027	0.402639
0	H	0.993044	0.0702949	0.406694
0	H	0.943149	0.914866	0.404233
0	H	0.791002	0.40817	0.633118
0	H	0.597289	0.37404	0.630866
0	H	0.633983	0.213564	0.631565
0	H	0.458967	0.74101	0.964373
0	H	0.265446	0.708811	0.965649
0	H	0.302119	0.548962	0.96568
0	H	0.119997	0.0723305	0.295321
0	H	0.930054	0.0400756	0.299698
0	H	0.973369	0.882078	0.297848
0	H	0.830438	0.447533	0.753727
0	H	0.556713	0.373814	0.750942
0	H	0.634464	0.174579	0.751964
0	H	0.498683	0.781579	0.0844743
0	H	0.224423	0.70764	0.0857782
0	H	0.303211	0.509833	0.0858407
0	H	0.159303	0.113637	0.415191
0	H	0.888846	0.0396183	0.419475
0	H	0.973857	0.842815	0.41795
0	H	0.892472	0.287631	0.592841
0	H	0.724287	0.595669	0.592343
0	H	0.408984	0.114313	0.593292
0	H	0.558144	0.618649	0.926268
0	H	0.391761	0.93	0.92785
0	H	0.0778065	0.45201	0.928768
0	H	0.22329	0.954061	0.257439
0	H	0.0551164	0.261686	0.260271
0	H	0.748652	0.783454	0.258977
0	H	0.79198	0.271598	0.481001
0	H	0.738699	0.51267	0.479849
0	H	0.493669	0.212803	0.480667
0	H	0.460134	0.604643	0.812756
0	H	0.405107	0.847201	0.814296
0	H	0.162715	0.549099	0.815508
0	H	0.124134	0.937635	0.144197
0	H	0.0688739	0.179697	0.146525
0	H	0.833129	0.880334	0.145818
0	H	0.723628	0.120809	0.699508
0	H	0.889584	0.591821	0.701952
0	H	0.412811	0.28172	0.701201
0	H	0.384013	0.454493	0.0312082
0	H	0.556576	0.921257	0.0337507
0	H	0.0882088	0.624011	0.034622
0	H	0.0609697	0.787216	0.365976
0	H	0.220796	0.26255	0.36992
0	H	0.748631	0.946377	0.368095
0	H	0.822193	0.157045	0.645465
0	H	0.856007	0.654549	0.646628
0	H	0.348968	0.184849	0.647009
0	H	0.483176	0.486866	0.981931
0	H	0.525203	0.987611	0.985044
0	H	0.0200778	0.525764	0.987462
0	H	0.149467	0.823646	0.287372
0	H	0.187189	0.31678	0.293079
0	H	0.693504	0.858681	0.291072
0	H	0.740696	0.145707	0.565607
0	H	0.866017	0.584362	0.567611
0	H	0.419918	0.264985	0.567043
0	H	0.405537	0.479978	0.898065
0	H	0.531141	0.91774	0.900605
0	H	0.0902333	0.601344	0.901592
0	H	0.0572901	0.810436	0.233173
0	H	0.196675	0.237573	0.236785
0	H	0.774152	0.947924	0.235081
0	H	0.0134388	0.347917	0.678079
0	H	0.661716	0.655849	0.677367
0	H	0.347694	0.994075	0.678525
0	H	0.681645	0.681768	0.0105243
0	H	0.327578	0.988687	0.0105234
0	H	0.0172201	0.33016	0.0123227
0	H	0.342337	0.0147481	0.340175
0	H	0.993508	0.31982	0.340122
0	H	0.688081	0.664742	0.342572
0	H	0.985637	0.249923	0.710349
0	H	0.762057	0.725621	0.708025
0	H	0.276413	0.0211335	0.712175
0	H	0.646214	0.580616	0.0333901
0	H	0.429569	0.05655	0.0357887
0	H	0.949421	0.363389	0.0376494
0	H	0.312992	0.916197	0.370631
0	H	0.0932438	0.390324	0.371991
0	H	0.618842	0.695325	0.372995
0	H	0.0518264	0.329493	0.789789
0	H	0.682921	0.712924	0.788947
0	H	0.291668	0.956704	0.791358
0	H	0.716308	0.65355	0.11743
0	H	0.353996	0.0500711	0.118602
0	H	0.955107	0.295086	0.120594
0	H	0.382235	0.994811	0.449054
0	H	0.0128504	0.378962	0.449281
0	H	0.627931	0.626978	0.452179
0	H	0.834547	0.233802	0.910352
0	H	0.776026	0.591343	0.907843
0	H	0.415046	0.172396	0.908281
0	H	0.504248	0.568461	0.245599
0	H	0.441512	0.927403	0.245823
0	H	0.0823515	0.505557	0.24649
0	H	0.170285	0.903988	0.58113
0	H	0.10408	0.260501	0.581478
0	H	0.753649	0.837258	0.580533
0	H	0.889281	0.153344	0.967664
0	H	0.859124	0.726204	0.96599
0	H	0.278629	0.120081	0.966505
0	H	0.555595	0.484505	0.298377
0	H	0.527661	0.0621258	0.29911
0	H	0.946025	0.456578	0.299934
0	H	0.226482	0.82475	0.636731
0	H	0.187287	0.395478	0.635967
0	H	0.617301	0.786229	0.636206
0	H	0.95902	0.183098	0.865857
0	H	0.830062	0.766036	0.864405
0	H	0.237399	0.0502627	0.866014
0	H	0.625461	0.514757	0.196673
0	H	0.496108	0.101326	0.199385
0	H	0.905165	0.385597	0.200726
0	H	0.294584	0.853968	0.533019
0	H	0.156879	0.433998	0.534081
0	H	0.576358	0.716849	0.535135
0	H	0.85504	0.11783	0.842897
0	H	0.895129	0.72823	0.841142
0	H	0.276776	0.152595	0.841034
0	H	0.521419	0.450879	0.172993
0	H	0.560727	0.0635246	0.172622
0	H	0.945076	0.487587	0.173317
0	H	0.190499	0.787397	0.513116
0	H	0.223169	0.397553	0.511063
0	H	0.615678	0.81921	0.510991
