#******************************************
#
# CIF file created by Zeo++
# Zeo++ is an open source package to
# analyze microporous materials
#
#*******************************************

_cell_length_a		16.9108(0)
_cell_length_b		16.805(0)
_cell_length_c		10.8111(0)
_cell_angle_alpha		90(0)
_cell_angle_beta		103.62(0)
_cell_angle_gamma		90(0)

_symmetry_space_group_name_H-M		'P1'
_symmetry_Int_Tables_number		1
_symmetry_cell_setting		Monoclinic

loop_
_symmetry_equiv_pos_as_xyz
'+x,+y,+z'

loop_
_atom_site_label
_atom_site_type_symbol
_atom_site_fract_x
_atom_site_fract_y
_atom_site_fract_z
0	Cl	0.441309	0.00843079	0.245954
0	Cl	0.545826	0.0509197	0.853615
0	Cl	0.956096	0.54175	0.194765
0	Cl	0.0553688	0.523212	0.781355
0	O	0.0860642	0.199862	0.204338
0	O	0.898967	0.206373	0.792573
0	O	0.592212	0.707709	0.200362
0	O	0.399432	0.722862	0.794725
0	O	0.121153	0.175599	0.416041
0	O	0.853789	0.17543	0.584531
0	O	0.629324	0.665022	0.404858
0	O	0.395419	0.780813	0.603435
0	O	0.499297	0.168951	0.301732
0	O	0.493228	0.201137	0.702749
0	O	4.59292e-05	0.69941	0.300272
0	O	0.991975	0.679792	0.68969
0	O	0.334287	0.250324	0.302121
0	O	0.655773	0.272182	0.699335
0	O	0.838297	0.772514	0.300541
0	O	0.151246	0.766975	0.692364
0	O	0.303951	0.221747	0.988798
0	O	0.689039	0.250763	0.011272
0	O	0.802219	0.753206	0.986115
0	O	0.182018	0.746119	0.00418808
0	O	0.416086	0.252361	0.919763
0	O	0.584031	0.289839	0.0928382
0	O	0.90935	0.789603	0.907568
0	O	0.0724375	0.773264	0.0828451
0	O	0.297645	0.42496	0.960447
0	O	0.711123	0.450797	0.0421846
0	O	0.787411	0.956162	0.972635
0	O	0.177413	0.947894	0.0284649
0	O	0.228129	0.475175	0.203784
0	O	0.77685	0.493815	0.788016
0	O	0.725585	0.994366	0.22974
0	O	0.248455	0.00576044	0.787836
0	O	0.301552	0.579545	0.158591
0	O	0.691451	0.587288	0.834658
0	O	0.814926	0.0841379	0.183839
0	O	0.150666	0.0862652	0.831054
0	O	0.130009	0.354474	0.272403
0	O	0.86428	0.365274	0.717956
0	O	0.610358	0.857445	0.280928
0	O	0.334845	0.888012	0.7159
0	O	0.000276993	0.38001	0.282082
0	O	0.990974	0.340743	0.690169
0	O	0.474394	0.839386	0.253453
0	O	0.452368	0.939113	0.685036
0	O	0.581924	0.25877	0.418859
0	O	0.414421	0.288218	0.573709
0	O	0.0774715	0.789294	0.426123
0	O	0.905095	0.765027	0.568234
0	C	0.165022	0.282414	0.0980101
0	C	0.828734	0.298153	0.898772
0	C	0.665058	0.801956	0.104012
0	C	0.316841	0.812644	0.893582
0	C	0.172451	0.214505	0.198547
0	C	0.815035	0.226092	0.805139
0	C	0.677089	0.728484	0.19474
0	C	0.313688	0.741537	0.799472
0	H	0.206473	0.235741	0.294278
0	H	0.778293	0.24437	0.709486
0	H	0.711601	0.745046	0.292402
0	H	0.279195	0.758199	0.701932
0	C	0.201125	0.133696	0.163192
0	C	0.786634	0.1484	0.852875
0	C	0.70768	0.652837	0.143769
0	C	0.289741	0.661659	0.847082
0	H	0.242427	0.14148	0.0977234
0	H	0.751245	0.160316	0.926038
0	H	0.747635	0.667538	0.0785032
0	H	0.247574	0.671042	0.910857
0	H	0.148714	0.0998988	0.104598
0	H	0.840469	0.114584	0.907137
0	H	0.655438	0.621401	0.0804176
0	H	0.344728	0.634594	0.911002
0	C	0.240829	0.0851727	0.281919
0	C	0.739176	0.0961888	0.744127
0	C	0.749771	0.596122	0.249956
0	C	0.254568	0.602843	0.739735
0	H	0.211528	0.100071	0.361119
0	H	0.761312	0.107663	0.656397
0	H	0.721154	0.601376	0.33249
0	H	0.284944	0.611181	0.660329
0	H	0.227495	0.0209262	0.26219
0	H	0.755024	0.0328808	0.768268
0	H	0.736959	0.533932	0.215282
0	H	0.270847	0.541307	0.775545
0	C	0.331486	0.0956593	0.324884
0	C	0.647905	0.104547	0.714213
0	C	0.84031	0.607068	0.293589
0	C	0.16356	0.607256	0.692069
0	C	0.375234	0.0937252	0.218542
0	C	0.612329	0.127493	0.824187
0	C	0.88359	0.621025	0.188599
0	C	0.117581	0.611623	0.795587
0	H	0.330838	0.0826913	0.123426
0	H	0.662812	0.132501	0.914847
0	H	0.839344	0.615943	0.0920614
0	H	0.160942	0.608299	0.892864
0	C	0.423729	0.167384	0.201463
0	C	0.563552	0.203729	0.81313
0	C	0.929185	0.698948	0.190159
0	C	0.0641097	0.684164	0.796888
0	H	0.444513	0.163738	0.110708
0	H	0.53532	0.211082	0.897166
0	H	0.956212	0.703535	0.104855
0	H	0.0388101	0.683889	0.883798
0	C	0.382414	0.249967	0.21168
0	C	0.609476	0.280719	0.791719
0	C	0.883918	0.777787	0.207009
0	C	0.102308	0.767679	0.781515
0	C	0.3259	0.282481	0.0875305
0	C	0.668965	0.312181	0.913018
0	C	0.824392	0.811928	0.0878317
0	C	0.156038	0.805093	0.903706
0	H	0.363332	0.328551	0.0488393
0	H	0.635667	0.360825	0.953533
0	H	0.858485	0.860915	0.0493133
0	H	0.115776	0.849082	0.940747
0	C	0.2486	0.324573	0.106284
0	C	0.748571	0.346687	0.890484
0	C	0.746506	0.848423	0.115061
0	C	0.230939	0.850845	0.883369
0	H	0.266227	0.34843	0.2083
0	H	0.731994	0.369462	0.787928
0	H	0.764662	0.868258	0.219039
0	H	0.21236	0.873676	0.780995
0	C	0.232467	0.396763	0.0176098
0	C	0.771338	0.418538	0.97839
0	C	0.725971	0.923199	0.0334747
0	C	0.243991	0.92339	0.971527
0	C	0.186588	0.461524	0.0701442
0	C	0.818951	0.479218	0.920872
0	C	0.681087	0.983236	0.0967082
0	C	0.288195	0.990568	0.921303
0	H	0.183975	0.51883	0.0177225
0	H	0.826162	0.537204	0.97208
0	H	0.675931	0.0425722	0.0501744
0	H	0.28879	0.047041	0.975953
0	C	0.103486	0.428369	0.0751783
0	C	0.898886	0.439975	0.91163
0	C	0.60044	0.947021	0.108339
0	C	0.372323	0.960673	0.914574
0	H	0.0640334	0.427162	0.977107
0	H	0.940326	0.438644	0.00819809
0	H	0.553233	0.955927	0.0193001
0	H	0.413078	0.958715	0.0113259
0	H	0.0744717	0.469821	0.131234
0	H	0.927811	0.478258	0.851004
0	H	0.579603	0.981414	0.18313
0	H	0.39985	0.00378747	0.858634
0	C	0.104776	0.345211	0.133258
0	C	0.891434	0.355399	0.856812
0	C	0.600365	0.858245	0.142028
0	C	0.371032	0.878637	0.851817
0	H	0.0418791	0.319544	0.111011
0	H	0.952479	0.325759	0.877128
0	H	0.538519	0.832354	0.100073
0	H	0.434551	0.856629	0.863021
0	C	0.125185	0.25109	0.965208
0	C	0.869329	0.269397	0.0332191
0	C	0.626306	0.775383	0.967239
0	C	0.359013	0.786913	0.0283022
0	H	0.167051	0.212441	0.928307
0	H	0.825671	0.237329	0.076047
0	H	0.670585	0.743806	0.925098
0	H	0.319346	0.749275	0.0707767
0	H	0.104254	0.29818	0.895019
0	H	0.896008	0.317577	0.0982841
0	H	0.601377	0.825034	0.90458
0	H	0.378395	0.83725	0.093397
0	H	0.0716636	0.214039	0.96695
0	H	0.91907	0.227456	0.0310131
0	H	0.575756	0.73374	0.965849
0	H	0.414483	0.752364	0.0296129
0	C	0.371772	0.101885	0.446496
0	C	0.601028	0.0898925	0.598697
0	C	0.880806	0.601464	0.41518
0	C	0.124713	0.60317	0.569549
0	H	0.342968	0.103625	0.525614
0	H	0.624259	0.074052	0.517047
0	H	0.851999	0.591843	0.493116
0	H	0.154461	0.59934	0.49187
0	H	0.437923	0.10565	0.477
0	H	0.534798	0.0930617	0.576967
0	H	0.946554	0.607074	0.446506
0	H	0.0586117	0.604139	0.537596
0	C	0.459704	0.303428	0.257128
0	C	0.534097	0.336028	0.738926
0	C	0.960046	0.833303	0.254323
0	C	0.0225976	0.816991	0.730807
0	H	0.484625	0.320613	0.171954
0	H	0.508405	0.357186	0.820377
0	H	0.986309	0.849437	0.17041
0	H	0.995252	0.833723	0.813731
0	C	0.445608	0.377828	0.327813
0	C	0.551447	0.406057	0.661692
0	C	0.94353	0.90801	0.321839
0	C	0.0334127	0.891579	0.658123
0	H	0.406192	0.419547	0.263083
0	H	0.585349	0.452079	0.72464
0	H	0.913092	0.952817	0.252647
0	H	0.06404	0.938017	0.723739
0	H	0.503387	0.408174	0.368788
0	H	0.4949	0.432853	0.606489
0	H	0.000324375	0.934552	0.376941
0	H	0.974336	0.915497	0.606605
0	H	0.415942	0.36418	0.40606
0	H	0.588414	0.387931	0.59487
0	H	0.903958	0.895403	0.38725
0	H	0.0703148	0.880198	0.588266
0	C	0.521024	0.247298	0.337143
0	C	0.473122	0.278214	0.660655
0	C	0.0199007	0.777521	0.338161
0	C	0.965856	0.756807	0.651527
0	C	0.224432	0.391468	0.876165
0	C	0.783478	0.411976	0.120498
0	C	0.713874	0.921476	0.891072
0	C	0.251303	0.915545	0.112429
0	H	0.233524	0.33485	0.832686
0	H	0.77122	0.356	0.163125
0	H	0.724381	0.866781	0.843454
0	H	0.244302	0.857683	0.153611
0	H	0.187893	0.433876	0.810784
0	H	0.825022	0.451185	0.185299
0	H	0.67389	0.96368	0.829859
0	H	0.285436	0.957952	0.180725
0	C	0.0689106	0.179614	0.316935
0	C	0.910096	0.180803	0.67834
0	C	0.576765	0.675852	0.307884
0	C	0.429362	0.738358	0.690907
0	C	0.980338	0.165262	0.29991
0	C	0.997218	0.164459	0.686356
0	C	0.48832	0.658761	0.287656
0	C	0.508354	0.696342	0.702523
0	H	0.967717	0.12497	0.372988
0	H	0.00644974	0.131095	0.603722
0	H	0.476484	0.614316	0.355074
0	H	0.502484	0.648726	0.631195
0	H	0.951095	0.139298	0.206078
0	H	0.0275076	0.132175	0.774129
0	H	0.460668	0.637954	0.190135
0	H	0.531524	0.668757	0.796877
0	H	0.947679	0.221462	0.306303
0	H	0.0317134	0.221114	0.690411
0	H	0.454267	0.713723	0.299028
0	H	0.555341	0.737541	0.685516
0	C	0.348854	0.222937	0.895569
0	C	0.646459	0.252116	0.106936
0	C	0.844063	0.756505	0.889769
0	C	0.139963	0.744844	0.100411
0	C	0.303391	0.186202	0.775855
0	C	0.688092	0.20286	0.215956
0	C	0.798124	0.715606	0.774189
0	C	0.189296	0.706259	0.215816
0	H	0.236869	0.189292	0.764613
0	H	0.753144	0.193134	0.217973
0	H	0.735343	0.70016	0.779549
0	H	0.250033	0.68762	0.204112
0	H	0.320094	0.122914	0.768744
0	H	0.659374	0.143766	0.215363
0	H	0.828725	0.660275	0.755783
0	H	0.157925	0.653863	0.243135
0	H	0.318221	0.215809	0.692347
0	H	0.684423	0.230508	0.307687
0	H	0.794255	0.752793	0.688273
0	H	0.19908	0.747205	0.298254
0	C	0.28528	0.534164	0.235945
0	C	0.713444	0.546847	0.756258
0	C	0.791284	0.0446012	0.261739
0	C	0.178339	0.0503097	0.753982
0	C	0.318014	0.5324	0.376526
0	C	0.682514	0.545846	0.615809
0	C	0.822411	0.042852	0.401952
0	C	0.149799	0.0472944	0.613237
0	H	0.29007	0.484708	0.422435
0	H	0.707369	0.49611	0.570205
0	H	0.80043	0.991104	0.446819
0	H	0.175614	0.996535	0.571283
0	H	0.307	0.589367	0.420042
0	H	0.69788	0.601414	0.570893
0	H	0.802515	0.0966703	0.446689
0	H	0.16704	0.102013	0.567907
0	H	0.384159	0.522146	0.400924
0	H	0.615727	0.542474	0.587909
0	H	0.889229	0.0439593	0.429794
0	H	0.0830254	0.0441868	0.583018
0	C	0.0710194	0.370446	0.337518
0	C	0.920102	0.358085	0.644829
0	C	0.539885	0.854899	0.324589
0	C	0.382261	0.919985	0.640155
0	C	0.108106	0.371068	0.476272
0	C	0.879204	0.371076	0.509008
0	C	0.559573	0.872398	0.462873
0	C	0.333417	0.92579	0.506888
0	H	0.147678	0.318585	0.504932
0	H	0.841374	0.318908	0.471011
0	H	0.604276	0.830154	0.517195
0	H	0.310195	0.866331	0.472208
0	H	0.0615186	0.370318	0.533195
0	H	0.923424	0.380363	0.449452
0	H	0.504832	0.871208	0.5025
0	H	0.370973	0.947867	0.443358
0	H	0.145903	0.424333	0.50483
0	H	0.83837	0.423059	0.495812
0	H	0.586482	0.932349	0.482989
0	H	0.280683	0.96525	0.498802
0	H	0.366852	0.243652	0.392128
0	H	0.625191	0.244243	0.62046
0	H	0.869095	0.747178	0.381813
0	H	0.120183	0.752863	0.603889
