#******************************************
#
# CIF file created by Zeo++
# Zeo++ is an open source package to
# analyze microporous materials
#
#*******************************************

_cell_length_a		14.7478(0)
_cell_length_b		16.6134(0)
_cell_length_c		17.5267(0)
_cell_angle_alpha		75.7035(0)
_cell_angle_beta		69.5958(0)
_cell_angle_gamma		88.0295(0)

_symmetry_space_group_name_H-M		'P1'
_symmetry_Int_Tables_number		1
_symmetry_cell_setting		Triclinic

loop_
_symmetry_equiv_pos_as_xyz
'+x,+y,+z'

loop_
_atom_site_label
_atom_site_type_symbol
_atom_site_fract_x
_atom_site_fract_y
_atom_site_fract_z
0	C	0.548025	0.296468	0.303371
0	C	0.515783	0.666186	0.697034
0	C	0.533421	0.24909	0.252414
0	C	0.530378	0.713591	0.747975
0	N	0.554204	0.163016	0.264015
0	N	0.509562	0.799652	0.73637
0	B	0.593344	0.116966	0.334414
0	B	0.470419	0.845667	0.665966
0	N	0.601682	0.17646	0.38848
0	N	0.462098	0.786154	0.611909
0	C	0.579613	0.262403	0.369856
0	C	0.484178	0.700213	0.630551
0	C	0.595006	0.297438	0.433158
0	C	0.468792	0.665154	0.567269
0	C	0.624124	0.234221	0.486546
0	C	0.439684	0.728344	0.51386
0	C	0.628774	0.159322	0.456954
0	C	0.435017	0.803264	0.543435
0	C	0.494582	0.269327	0.184986
0	C	0.569237	0.693374	0.815392
0	C	0.491128	0.196996	0.159113
0	C	0.572675	0.765718	0.841262
0	C	0.529382	0.131591	0.208933
0	C	0.534384	0.831094	0.791453
0	C	0.538794	0.0447883	0.201685
0	C	0.524898	0.917893	0.798705
0	H	0.572554	0.00511452	0.243518
0	H	0.491143	0.957525	0.756844
0	H	0.582554	0.0421362	0.137104
0	H	0.481081	0.920538	0.863277
0	H	0.467062	0.0143495	0.216399
0	H	0.596598	0.948381	0.784009
0	C	0.451422	0.185513	0.0950721
0	C	0.61244	0.777206	0.905273
0	H	0.491084	0.138042	0.0633528
0	H	0.572782	0.824656	0.937026
0	H	0.463679	0.243982	0.0446061
0	H	0.600246	0.718717	0.95571
0	C	0.34308	0.159914	0.13448
0	C	0.720775	0.802829	0.865772
0	H	0.315275	0.146691	0.0882443
0	H	0.748628	0.816202	0.911923
0	H	0.300923	0.208858	0.160524
0	H	0.762912	0.75382	0.839836
0	H	0.32784	0.10377	0.1866
0	H	0.735988	0.858872	0.813542
0	C	0.463337	0.3516	0.151905
0	C	0.600487	0.611092	0.848448
0	H	0.403538	0.37166	0.200686
0	H	0.660207	0.591005	0.79963
0	H	0.436555	0.351664	0.100526
0	H	0.627359	0.611029	0.899778
0	H	0.522906	0.399946	0.12702
0	H	0.540895	0.562763	0.873388
0	F	0.68218	0.0855631	0.30029
0	F	0.381561	0.877051	0.700064
0	F	0.532636	0.0483053	0.384745
0	F	0.531118	0.91432	0.615592
0	C	0.660408	0.0787287	0.493732
0	C	0.403355	0.883827	0.506628
0	H	0.646039	0.0266493	0.470129
0	H	0.417723	0.935934	0.530206
0	H	0.623897	0.0604642	0.562717
0	H	0.439855	0.902068	0.437643
0	H	0.73878	0.0818011	0.482246
0	H	0.324979	0.880733	0.518135
0	C	0.646699	0.239986	0.561415
0	C	0.417185	0.72257	0.438965
0	H	0.625038	0.180299	0.610568
0	H	0.43898	0.782215	0.389763
0	H	0.602001	0.287091	0.590678
0	H	0.461829	0.67539	0.409788
0	C	0.75406	0.262652	0.538934
0	C	0.309826	0.700006	0.461315
0	H	0.76936	0.265567	0.595227
0	H	0.294601	0.697255	0.404947
0	H	0.776214	0.323339	0.493175
0	H	0.287605	0.639251	0.506947
0	H	0.800211	0.216346	0.511705
0	H	0.263661	0.746262	0.488625
0	C	0.582454	0.384375	0.438556
0	C	0.481307	0.578207	0.56189
0	H	0.632535	0.428121	0.382723
0	H	0.431165	0.534475	0.617692
0	H	0.59686	0.395144	0.493036
0	H	0.46695	0.56746	0.507382
0	H	0.508349	0.403291	0.445166
0	H	0.555384	0.559238	0.555321
0	C	0.529215	0.386448	0.285705
0	C	0.53459	0.576209	0.714702
0	C	0.605509	0.444174	0.231153
0	C	0.458312	0.518516	0.769345
0	H	0.677076	0.423078	0.200481
0	H	0.386794	0.539638	0.800112
0	C	0.589451	0.528754	0.215228
0	C	0.474311	0.433923	0.785204
0	H	0.648573	0.574364	0.173133
0	H	0.415181	0.388331	0.827313
0	C	0.496503	0.554617	0.253284
0	C	0.567185	0.408024	0.746997
0	C	0.419626	0.497213	0.307174
0	C	0.644048	0.465392	0.692998
0	H	0.34732	0.518157	0.336369
0	H	0.716278	0.44441	0.663644
0	C	0.436564	0.412704	0.323631
0	C	0.62716	0.549909	0.676603
0	H	0.37751	0.367126	0.366049
0	H	0.686189	0.595465	0.634073
0	N	0.479652	0.644132	0.234918
0	N	0.583906	0.318474	0.765298
0	O	0.398784	0.664605	0.236821
0	O	0.664673	0.297858	0.763614
0	O	0.548201	0.693062	0.217755
0	O	0.51536	0.269674	0.78216
0	C	0.207244	0.583014	0.897934
0	C	0.856539	0.37967	0.10244
0	C	0.254849	0.612021	0.942291
0	C	0.808949	0.350643	0.058086
0	N	0.300115	0.556659	0.993662
0	N	0.763662	0.405979	0.00671302
0	B	0.298082	0.460678	0.00184505
0	B	0.765693	0.501965	0.998507
0	N	0.241799	0.437325	0.949014
0	N	0.821947	0.525348	0.0513507
0	C	0.19964	0.498216	0.90035
0	C	0.86412	0.464472	0.100017
0	C	0.15356	0.45425	0.860821
0	C	0.910198	0.508466	0.139537
0	C	0.169133	0.369688	0.885052
0	C	0.89462	0.593021	0.11528
0	C	0.224726	0.360912	0.939567
0	C	0.839021	0.601773	0.0607776
0	C	0.271944	0.695645	0.949345
0	C	0.791887	0.267011	0.0510366
0	C	0.325946	0.689071	0.0010772
0	C	0.737861	0.273561	0.999328
0	C	0.342315	0.601388	0.0284005
0	C	0.721472	0.361238	0.971988
0	C	0.396734	0.568078	0.084593
0	C	0.667063	0.394507	0.915783
0	H	0.388147	0.499998	0.109324
0	H	0.675698	0.462579	0.890979
0	H	0.374113	0.595803	0.139348
0	H	0.689651	0.366723	0.861071
0	H	0.47522	0.583673	0.0514915
0	H	0.588567	0.378963	0.94887
0	C	0.361801	0.757643	0.0259873
0	C	0.701977	0.204977	0.974464
0	H	0.425907	0.738928	0.0442056
0	H	0.637768	0.223649	0.956388
0	H	0.388828	0.812003	0.970617
0	H	0.675088	0.15058	0.0298127
0	C	0.283358	0.783131	0.0984327
0	C	0.7803	0.179545	0.901911
0	H	0.311791	0.830405	0.119557
0	H	0.751792	0.13227	0.880846
0	H	0.254821	0.729935	0.153294
0	H	0.808738	0.232745	0.84704
0	H	0.221689	0.807971	0.0808374
0	H	0.842049	0.154706	0.919383
0	C	0.236091	0.772252	0.909203
0	C	0.827776	0.190398	0.0911357
0	H	0.156944	0.767458	0.924998
0	H	0.906925	0.195217	0.0753171
0	H	0.270009	0.787125	0.840094
0	H	0.793867	0.175486	0.160246
0	H	0.25255	0.82665	0.928424
0	H	0.811337	0.136013	0.0718911
0	F	0.257381	0.417763	0.0851733
0	F	0.806425	0.544837	0.915166
0	F	0.39174	0.435079	0.975613
0	F	0.672025	0.527553	0.0247011
0	C	0.2598	0.282499	0.977939
0	C	0.803924	0.680152	0.0223711
0	H	0.28665	0.287257	0.0280533
0	H	0.77709	0.675354	0.972264
0	H	0.320233	0.261073	0.930538
0	H	0.743464	0.701585	0.069747
0	H	0.202134	0.232411	0.00514613
0	H	0.861575	0.730258	0.995135
0	C	0.134604	0.300453	0.860151
0	C	0.929194	0.662275	0.140138
0	H	0.149067	0.318348	0.791198
0	H	0.914839	0.644384	0.209074
0	H	0.177347	0.245069	0.869828
0	H	0.8864	0.717633	0.130512
0	C	0.0265476	0.277392	0.907707
0	C	0.037224	0.68536	0.092465
0	H	0.999747	0.232628	0.88277
0	H	0.0641101	0.730099	0.117381
0	H	0.982921	0.332075	0.902738
0	H	0.0808493	0.630663	0.0973583
0	H	0.0106571	0.250122	0.975004
0	H	0.0530179	0.712658	0.0251883
0	C	0.0998362	0.492103	0.8054
0	C	0.963923	0.470597	0.194955
0	H	0.144098	0.540598	0.750799
0	H	0.919672	0.422063	0.249519
0	H	0.0340465	0.520451	0.838759
0	H	0.0297188	0.442275	0.16157
0	H	0.0755429	0.445878	0.779861
0	H	0.988193	0.516804	0.220533
0	C	0.166256	0.644096	0.842738
0	C	0.897522	0.318578	0.157636
0	C	0.0685043	0.662832	0.872304
0	C	0.995283	0.299877	0.128098
0	H	0.0207525	0.630842	0.935784
0	H	0.0430617	0.331916	0.0646453
0	C	0.0322215	0.721632	0.820127
0	C	0.0315262	0.240995	0.180251
0	H	0.95587	0.736394	0.841854
0	H	0.107867	0.226217	0.158523
0	C	0.0946128	0.761887	0.739
0	C	0.969087	0.200656	0.261327
0	C	0.192256	0.742923	0.708886
0	C	0.871432	0.219605	0.291417
0	H	0.240323	0.774839	0.645503
0	H	0.823324	0.18762	0.354758
0	C	0.227645	0.6831	0.760935
0	C	0.836075	0.279469	0.239385
0	H	0.303461	0.667346	0.737997
0	H	0.760231	0.295168	0.262275
0	N	0.0567404	0.825292	0.684278
0	N	0.00692376	0.137108	0.315955
0	O	0.114807	0.868612	0.619902
0	O	0.948825	0.0938712	0.380408
0	O	0.968959	0.830826	0.706101
0	O	0.094655	0.131336	0.293994
0	C	0.23715	0.246702	0.502471
0	C	0.826671	0.715957	0.497882
0	C	0.280496	0.24111	0.562121
0	C	0.783319	0.721581	0.438231
0	N	0.292188	0.31181	0.592038
0	N	0.771626	0.650888	0.408307
0	B	0.256186	0.398746	0.559882
0	B	0.80763	0.563942	0.440413
0	N	0.206993	0.394972	0.495236
0	N	0.85682	0.56769	0.505061
0	C	0.203233	0.32167	0.466992
0	C	0.860583	0.640971	0.533337
0	C	0.161521	0.3444	0.40187
0	C	0.902293	0.618189	0.598464
0	C	0.141535	0.428462	0.392397
0	C	0.922246	0.534119	0.607909
0	C	0.16993	0.458561	0.451545
0	C	0.89386	0.504068	0.548738
0	C	0.322898	0.172003	0.605489
0	C	0.740892	0.790676	0.394871
0	C	0.357954	0.201823	0.657772
0	C	0.705825	0.760859	0.342597
0	C	0.337982	0.289325	0.648247
0	C	0.72582	0.67336	0.352112
0	C	0.3654	0.344951	0.691412
0	C	0.698413	0.617746	0.308939
0	H	0.320452	0.398993	0.697262
0	H	0.743125	0.563536	0.303342
0	H	0.441319	0.369239	0.657528
0	H	0.62238	0.593701	0.342634
0	H	0.360452	0.310973	0.755614
0	H	0.703723	0.651649	0.244622
0	C	0.407683	0.155319	0.714369
0	C	0.656023	0.807281	0.286025
0	H	0.454934	0.109981	0.684367
0	H	0.608803	0.852658	0.315987
0	H	0.457773	0.198421	0.722557
0	H	0.605896	0.764131	0.277945
0	C	0.335883	0.110107	0.800367
0	C	0.727735	0.852402	0.199944
0	H	0.374129	0.0801088	0.842503
0	H	0.689401	0.882354	0.157867
0	H	0.291044	0.061966	0.794961
0	H	0.77267	0.900555	0.205221
0	H	0.286437	0.153087	0.830515
0	H	0.777081	0.809363	0.169807
0	C	0.327947	0.0868876	0.594132
0	C	0.735825	0.875786	0.406245
0	H	0.257032	0.0603395	0.6017
0	H	0.806731	0.902349	0.39869
0	H	0.354512	0.0437478	0.639533
0	H	0.709264	0.918918	0.360837
0	H	0.377957	0.0847777	0.530947
0	H	0.685798	0.877886	0.469429
0	F	0.333274	0.457499	0.522957
0	F	0.730548	0.505182	0.477307
0	F	0.19471	0.426411	0.626707
0	F	0.869087	0.536318	0.373555
0	C	0.160341	0.543844	0.462937
0	C	0.903437	0.418804	0.537293
0	H	0.176741	0.552223	0.517222
0	H	0.887169	0.410509	0.482923
0	H	0.08564	0.563341	0.47206
0	H	0.978095	0.39924	0.528273
0	H	0.208181	0.589025	0.406863
0	H	0.855485	0.373609	0.593284
0	C	0.100735	0.479592	0.33097
0	C	0.96299	0.482918	0.669351
0	H	0.0570377	0.439058	0.313386
0	H	0.0066541	0.523404	0.687021
0	H	0.0489804	0.522642	0.360584
0	H	0.0147519	0.439882	0.639719
0	C	0.180324	0.528795	0.251865
0	C	0.883341	0.433675	0.748379
0	H	0.150006	0.562911	0.205026
0	H	0.913592	0.39954	0.79526
0	H	0.233029	0.487377	0.222361
0	H	0.830567	0.475062	0.777863
0	H	0.219919	0.574449	0.266034
0	H	0.843828	0.388029	0.734133
0	C	0.142254	0.292395	0.351474
0	C	0.921597	0.67017	0.648871
0	H	0.174838	0.231817	0.356837
0	H	0.888906	0.730705	0.643611
0	H	0.169733	0.324836	0.283962
0	H	0.894257	0.637669	0.716365
0	H	0.0637925	0.279898	0.369112
0	H	5.75845e-05	0.682762	0.631123
0	C	0.228913	0.171127	0.47363
0	C	0.834915	0.79152	0.526748
0	C	0.308107	0.152217	0.408863
0	C	0.755749	0.810389	0.591562
0	H	0.374666	0.192271	0.380994
0	H	0.689219	0.770303	0.619475
0	C	0.301965	0.0820727	0.380634
0	C	0.761892	0.880554	0.619773
0	H	0.363211	0.0665163	0.33048
0	H	0.70067	0.896076	0.669964
0	C	0.215995	0.0310183	0.417329
0	C	0.847798	0.931699	0.582945
0	C	0.136874	0.0494888	0.482
0	C	0.926864	0.913276	0.518211
0	H	0.0695596	0.00911625	0.510206
0	H	0.994125	0.953727	0.489892
0	C	0.143679	0.119679	0.510524
0	C	0.920091	0.843043	0.489749
0	H	0.0820092	0.133757	0.561377
0	H	0.981717	0.829002	0.438838
0	N	0.210209	0.957301	0.386368
0	N	0.853491	0.00550167	0.613813
0	O	0.131181	0.920932	0.408
0	O	0.93257	0.041767	0.592396
0	O	0.285508	0.935848	0.340486
0	O	0.778095	0.0271569	0.659328
