#******************************************
#
# CIF file created by Zeo++
# Zeo++ is an open source package to
# analyze microporous materials
#
#*******************************************

_cell_length_a		9.42868(0)
_cell_length_b		26.7447(0)
_cell_length_c		12.8709(0)
_cell_angle_alpha		90(0)
_cell_angle_beta		99.6854(0)
_cell_angle_gamma		90(0)

_symmetry_space_group_name_H-M		'P1'
_symmetry_Int_Tables_number		1
_symmetry_cell_setting		Monoclinic

loop_
_symmetry_equiv_pos_as_xyz
'+x,+y,+z'

loop_
_atom_site_label
_atom_site_type_symbol
_atom_site_fract_x
_atom_site_fract_y
_atom_site_fract_z
0	O	0.653883	0.34588	0.214919
0	O	0.612965	0.66245	0.685949
0	O	0.156634	0.851185	0.214708
0	O	0.112902	0.156588	0.685899
0	O	0.738164	0.370897	0.40821
0	O	0.699256	0.677168	0.987043
0	O	0.242463	0.875066	0.410087
0	O	0.201101	0.171223	0.986713
0	O	0.380491	0.332229	0.494101
0	O	0.382952	0.68659	0.990748
0	O	0.88288	0.8386	0.494178
0	O	0.883578	0.180038	0.991035
0	O	0.0387532	0.281024	0.34751
0	O	0.0476539	0.73342	0.854579
0	O	0.54129	0.787118	0.349762
0	O	0.548636	0.226774	0.854946
0	O	0.236839	0.249835	0.149939
0	O	0.213562	0.772015	0.660419
0	O	0.737968	0.755544	0.15092
0	O	0.713596	0.266195	0.661838
0	O	0.532626	0.254794	0.0577161
0	O	0.498706	0.767195	0.544673
0	O	0.031022	0.760223	0.0569747
0	O	0.996845	0.261203	0.543981
0	C	0.527669	0.324843	0.254077
0	C	0.514987	0.687128	0.73763
0	C	0.0299203	0.830268	0.254029
0	C	0.0154208	0.181326	0.737827
0	C	0.506522	0.3404	0.35446
0	C	0.508512	0.675486	0.842605
0	C	0.00957746	0.84578	0.354544
0	C	0.0094109	0.1695	0.842825
0	C	0.382769	0.321128	0.390579
0	C	0.394492	0.695818	0.88582
0	C	0.884844	0.827231	0.390733
0	C	0.89523	0.189567	0.886202
0	C	0.285699	0.288054	0.330349
0	C	0.292767	0.72961	0.830355
0	C	0.787331	0.793981	0.331307
0	C	0.793436	0.223363	0.83104
0	C	0.304173	0.278438	0.225458
0	C	0.303312	0.739503	0.72527
0	C	0.805529	0.784343	0.226194
0	C	0.803569	0.233487	0.725969
0	C	0.430543	0.297821	0.186672
0	C	0.41493	0.719387	0.677723
0	C	0.931725	0.803654	0.186665
0	C	0.915084	0.213499	0.678188
0	C	0.764955	0.307977	0.193752
0	C	0.747117	0.689101	0.684509
0	C	0.265367	0.81261	0.192319
0	C	0.247544	0.182874	0.684545
0	C	0.608769	0.375314	0.415429
0	C	0.63679	0.647056	0.911763
0	C	0.112936	0.880414	0.415757
0	C	0.137817	0.141075	0.911768
0	C	0.555762	0.420833	0.461101
0	C	0.576318	0.598084	0.950304
0	C	0.0602274	0.926097	0.460952
0	C	0.0774767	0.0921803	0.950465
0	C	0.47495	0.452887	0.386438
0	C	0.502794	0.5641	0.877757
0	C	0.982384	0.958511	0.385875
0	C	0.00323778	0.0582478	0.878171
0	C	0.437052	0.49999	0.418282
0	C	0.449148	0.519488	0.912508
0	C	0.94156	0.00529929	0.417519
0	C	0.94746	0.0141015	0.913246
0	C	0.476357	0.514576	0.523995
0	C	0.469731	0.508361	0.0201229
0	C	0.976	0.0192812	0.523752
0	C	0.966785	0.00333756	0.0210179
0	C	0.551868	0.481904	0.597761
0	C	0.544779	0.542009	0.0927923
0	C	0.0499628	0.986392	0.597901
0	C	0.043179	0.0367919	0.0933105
0	C	0.593579	0.434652	0.566564
0	C	0.598142	0.586591	0.0580445
0	C	0.0940494	0.93949	0.566795
0	C	0.0986877	0.0808699	0.05824
0	C	0.253426	0.35578	0.524087
0	C	0.279506	0.64757	0.00413208
0	C	0.755856	0.862494	0.523242
0	C	0.779315	0.141255	0.00413094
0	C	0.17967	0.260467	0.384904
0	C	0.188137	0.754852	0.889754
0	C	0.682148	0.766256	0.386564
0	C	0.688662	0.248385	0.890511
0	C	0.181553	0.204171	0.373602
0	C	0.185653	0.81133	0.876537
0	C	0.683764	0.709823	0.375032
0	C	0.685642	0.304908	0.877792
0	C	0.308673	0.178234	0.411909
0	C	0.311212	0.838568	0.913435
0	C	0.810365	0.683449	0.412726
0	C	0.811216	0.332085	0.914752
0	C	0.31111	0.126085	0.406846
0	C	0.310426	0.890701	0.906458
0	C	0.811499	0.631254	0.407759
0	C	0.810788	0.384218	0.908013
0	C	0.187695	0.0996525	0.362803
0	C	0.184528	0.915909	0.86239
0	C	0.686868	0.605215	0.364128
0	C	0.685055	0.409516	0.864359
0	C	0.0612247	0.12558	0.323949
0	C	0.0600657	0.888788	0.824525
0	C	0.560775	0.631563	0.326029
0	C	0.560131	0.38247	0.82635
0	C	0.0573253	0.177635	0.331442
0	C	0.0602538	0.836543	0.831724
0	C	0.558462	0.683622	0.333589
0	C	0.560196	0.330247	0.833309
0	C	0.0878789	0.233677	0.127441
0	C	0.0660144	0.754633	0.632228
0	C	0.588347	0.739926	0.128525
0	C	0.566524	0.248616	0.632242
0	C	0.43901	0.283262	0.0745775
0	C	0.420044	0.734056	0.567543
0	C	0.938186	0.788987	0.0741824
0	C	0.919066	0.227902	0.567605
0	C	0.328737	0.306248	0.993059
0	C	0.320014	0.706357	0.484783
0	C	0.826997	0.811678	0.99269
0	C	0.818944	0.199958	0.485392
0	C	0.243162	0.275994	0.918669
0	C	0.236987	0.732264	0.401356
0	C	0.741109	0.781174	0.91885
0	C	0.735719	0.22593	0.402115
0	C	0.147886	0.298851	0.837313
0	C	0.144424	0.705714	0.324653
0	C	0.646146	0.80375	0.836825
0	C	0.643121	0.199398	0.32532
0	C	0.134336	0.350813	0.833049
0	C	0.133174	0.653697	0.331817
0	C	0.632617	0.85571	0.831348
0	C	0.632347	0.147322	0.332433
0	C	0.214692	0.380751	0.911038
0	C	0.215192	0.628068	0.415809
0	C	0.71304	0.885918	0.908552
0	C	0.714533	0.121677	0.416348
0	C	0.311909	0.3585	0.991155
0	C	0.309039	0.654275	0.492348
0	C	0.810011	0.863962	0.989287
0	C	0.808296	0.147886	0.492972
0	H	0.720381	0.365112	0.287106
0	H	0.713204	0.635618	0.857768
0	H	0.223456	0.869565	0.286714
0	H	0.213747	0.129501	0.85749
0	H	0.444117	0.441294	0.304369
0	H	0.486789	0.572931	0.794141
0	H	0.956154	0.947439	0.303301
0	H	0.988094	0.0668286	0.794466
0	H	0.37763	0.525496	0.360754
0	H	0.391006	0.493499	0.855899
0	H	0.884148	0.0310238	0.359379
0	H	0.88832	0.9884	0.856516
0	H	0.447913	0.551984	0.548163
0	H	0.428	0.473707	0.046819
0	H	0.945065	0.0562355	0.548441
0	H	0.922849	0.96926	0.0482305
0	H	0.580191	0.493315	0.680229
0	H	0.561655	0.533414	0.176343
0	H	0.0752948	0.997427	0.680793
0	H	0.0590926	0.02843	0.177068
0	H	0.654728	0.409113	0.623726
0	H	0.657247	0.613664	0.112725
0	H	0.153212	0.913618	0.624088
0	H	0.158578	0.107726	0.112922
0	H	0.203334	0.268287	0.472301
0	H	0.21805	0.746175	0.976322
0	H	0.707028	0.773942	0.473972
0	H	0.718419	0.239611	0.977048
0	H	0.405807	0.198608	0.445598
0	H	0.410603	0.818992	0.945074
0	H	0.908337	0.703453	0.44582
0	H	0.910713	0.312428	0.946375
0	H	0.410044	0.106123	0.436949
0	H	0.408178	0.911721	0.934891
0	H	0.909971	0.610806	0.43743
0	H	0.908739	0.405157	0.936443
0	H	0.190278	0.0590215	0.35836
0	H	0.183313	0.956667	0.85872
0	H	0.688332	0.564592	0.359549
0	H	0.68402	0.450246	0.860413
0	H	0.965371	0.105719	0.286778
0	H	0.961909	0.908112	0.789974
0	H	0.46436	0.611839	0.289287
0	H	0.462034	0.401951	0.791963
0	H	0.957651	0.197894	0.302949
0	H	0.962856	0.815213	0.803014
0	H	0.459307	0.704264	0.305653
0	H	0.462894	0.308903	0.804345
0	H	0.49466	0.226199	0.915745
0	H	0.485779	0.784602	0.410525
0	H	0.993925	0.732664	0.915441
0	H	0.983728	0.278396	0.408454
0	H	0.24616	0.234106	0.927767
0	H	0.243745	0.772958	0.398091
0	H	0.743757	0.73927	0.928856
0	H	0.742216	0.266627	0.398909
0	H	0.0826682	0.27593	0.776982
0	H	0.0799629	0.725106	0.258524
0	H	0.580404	0.78088	0.776656
0	H	0.578375	0.218934	0.259469
0	H	0.0588648	0.368169	0.769887
0	H	0.0593273	0.633403	0.271902
0	H	0.557529	0.872818	0.767502
0	H	0.558726	0.126953	0.272775
0	H	0.2017	0.421219	0.908971
0	H	0.205546	0.587691	0.422057
0	H	0.700188	0.926379	0.905717
0	H	0.704877	0.0812672	0.422398
0	H	0.375871	0.381493	0.0512728
0	H	0.374527	0.634576	0.558006
0	H	0.874551	0.887117	0.0487361
0	H	0.874262	0.128197	0.558573
0	H	0.711819	0.27261	0.167017
0	H	0.724803	0.725878	0.648249
0	H	0.209044	0.778066	0.162539
0	H	0.226108	0.219623	0.647952
0	H	0.808137	0.326493	0.129338
0	H	0.801748	0.664497	0.635607
0	H	0.311569	0.831709	0.129676
0	H	0.301906	0.157926	0.636127
0	H	0.84393	0.303603	0.266712
0	H	0.807444	0.692066	0.765117
0	H	0.343386	0.806567	0.264927
0	H	0.307299	0.18588	0.765338
0	H	0.273003	0.349939	0.609881
0	H	0.282338	0.648154	0.0894869
0	H	0.773517	0.856417	0.609056
0	H	0.781536	0.14185	0.0894661
0	H	0.257046	0.395502	0.504227
0	H	0.317452	0.611711	0.978195
0	H	0.761288	0.902246	0.503762
0	H	0.816982	0.10525	0.978377
0	H	0.152823	0.338075	0.48735
0	H	0.172812	0.656919	0.961694
0	H	0.655078	0.845174	0.484974
0	H	0.672057	0.150937	0.959607
0	H	0.0334296	0.233646	0.194969
0	H	0.0164069	0.750172	0.702984
0	H	0.53565	0.73924	0.196473
0	H	0.517132	0.242007	0.702622
0	H	0.0378739	0.258484	0.0643709
0	H	0.0649658	0.719513	0.588803
0	H	0.537706	0.765391	0.0674067
0	H	0.566371	0.214741	0.584644
0	H	0.103708	0.195584	0.0896176
0	H	0.0157926	0.785305	0.582479
0	H	0.603507	0.702223	0.0889026
0	H	0.515309	0.279877	0.586477
