#******************************************
#
# CIF file created by Zeo++
# Zeo++ is an open source package to
# analyze microporous materials
#
#*******************************************

_cell_length_a		15.5145(0)
_cell_length_b		16.097(0)
_cell_length_c		17.3377(0)
_cell_angle_alpha		90(0)
_cell_angle_beta		90(0)
_cell_angle_gamma		90(0)

_symmetry_space_group_name_H-M		'P1'
_symmetry_Int_Tables_number		1
_symmetry_cell_setting		Monoclinic

loop_
_symmetry_equiv_pos_as_xyz
'+x,+y,+z'

loop_
_atom_site_label
_atom_site_type_symbol
_atom_site_fract_x
_atom_site_fract_y
_atom_site_fract_z
0	S	0.899191	0.436583	0.139874
0	S	0.649055	0.574637	0.640236
0	S	0.311841	0.131362	0.389045
0	S	0.237487	0.887402	0.891665
0	S	0.152853	0.57762	0.855328
0	S	0.403156	0.439396	0.355142
0	S	0.74033	0.882649	0.606228
0	S	0.814646	0.126723	0.103742
0	S	0.402729	0.938965	0.639681
0	S	0.153261	0.0780853	0.140069
0	S	0.81467	0.626127	0.891634
0	S	0.74083	0.383036	0.388902
0	S	0.649404	0.0750831	0.355442
0	S	0.898866	0.936119	0.855371
0	S	0.237434	0.38801	0.1036
0	S	0.311347	0.630962	0.606342
0	O	0.827064	0.434956	0.194616
0	O	0.720918	0.573926	0.695373
0	O	0.328944	0.0494622	0.419323
0	O	0.219667	0.969517	0.921014
0	O	0.224954	0.579309	0.800558
0	O	0.331256	0.440228	0.300045
0	O	0.723309	0.96451	0.575831
0	O	0.832507	0.0445798	0.0744749
0	O	0.330847	0.939733	0.694817
0	O	0.225134	0.0800362	0.195076
0	O	0.83341	0.544168	0.920911
0	O	0.723853	0.464831	0.419484
0	O	0.721248	0.0743918	0.300267
0	O	0.826989	0.93431	0.800369
0	O	0.218792	0.469941	0.0742152
0	O	0.328343	0.549141	0.575821
0	O	0.910145	0.516142	0.101726
0	O	0.635017	0.495687	0.602016
0	O	0.226308	0.142877	0.35714
0	O	0.323361	0.87572	0.86055
0	O	0.141911	0.498011	0.893389
0	O	0.417314	0.518306	0.393409
0	O	0.825803	0.87113	0.63826
0	O	0.728728	0.138424	0.134748
0	O	0.4166	0.0177542	0.601247
0	O	0.142814	0.998543	0.101898
0	O	0.728566	0.637108	0.860865
0	O	0.826282	0.371506	0.35682
0	O	0.635582	0.996243	0.393802
0	O	0.90941	0.0156091	0.89363
0	O	0.323494	0.377003	0.13447
0	O	0.225862	0.642511	0.638338
0	C	0.994202	0.409661	0.186014
0	C	0.555327	0.605434	0.686471
0	C	0.33452	0.216898	0.444351
0	C	0.213463	0.801695	0.946375
0	C	0.0578489	0.604576	0.809202
0	C	0.49682	0.408557	0.308845
0	C	0.717686	0.797098	0.550957
0	C	0.838687	0.212389	0.0489906
0	C	0.496377	0.908285	0.686081
0	C	0.0580753	0.104809	0.186049
0	C	0.838144	0.71202	0.946258
0	C	0.718197	0.297608	0.444264
0	C	0.555731	0.105774	0.309095
0	C	0.994024	0.909356	0.809372
0	C	0.213954	0.302098	0.0490211
0	C	0.334008	0.716361	0.550956
0	C	0.064572	0.385909	0.134974
0	C	0.485234	0.630664	0.635693
0	C	0.371691	0.278511	0.39752
0	C	0.179277	0.739662	0.898055
0	C	0.987501	0.628415	0.860221
0	C	0.566947	0.38335	0.359601
0	C	0.68046	0.73551	0.597788
0	C	0.872823	0.274475	0.0972892
0	C	0.566557	0.883022	0.635431
0	C	0.987645	0.128347	0.134991
0	C	0.872352	0.774119	0.898049
0	C	0.680782	0.235983	0.397622
0	C	0.485586	0.131091	0.359756
0	C	0.064474	0.885849	0.860428
0	C	0.179686	0.240041	0.0972506
0	C	0.371385	0.778026	0.597594
0	C	0.881093	0.357035	0.0753867
0	C	0.671454	0.653114	0.575627
0	C	0.400212	0.159836	0.321916
0	C	0.150623	0.858616	0.823051
0	C	0.170998	0.657092	0.919892
0	C	0.380725	0.360896	0.419715
0	C	0.651907	0.854249	0.673313
0	C	0.901487	0.155578	0.172361
0	C	0.380376	0.860352	0.575213
0	C	0.171618	0.157456	0.0754378
0	C	0.901235	0.655371	0.822904
0	C	0.652386	0.354582	0.321885
0	C	0.671788	0.153637	0.419967
0	C	0.880453	0.85669	0.91993
0	C	0.150816	0.358878	0.172309
0	C	0.399771	0.65945	0.673371
0	C	0.872706	0.37268	0.995911
0	C	0.683806	0.636946	0.496724
0	C	0.394344	0.143512	0.23783
0	C	0.157594	0.877575	0.739517
0	C	0.179405	0.641359	0.999344
0	C	0.368375	0.37704	0.498624
0	C	0.657768	0.870627	0.757387
0	C	0.894503	0.136598	0.255889
0	C	0.367716	0.876349	0.496307
0	C	0.180819	0.14158	0.996073
0	C	0.89429	0.636463	0.739367
0	C	0.658325	0.370746	0.237793
0	C	0.684478	0.137594	0.498858
0	C	0.871264	0.872506	0.999307
0	C	0.157798	0.377819	0.255838
0	C	0.393795	0.643286	0.757458
0	C	0.854615	0.308634	0.943191
0	C	0.706723	0.700475	0.444897
0	C	0.464111	0.123995	0.19469
0	C	0.088185	0.897399	0.695968
0	C	0.197522	0.705371	0.052113
0	C	0.345459	0.313492	0.550428
0	C	0.587962	0.890107	0.800505
0	C	0.963883	0.116654	0.29944
0	C	0.344436	0.812736	0.44469
0	C	0.199327	0.2055	0.943324
0	C	0.963689	0.616585	0.695818
0	C	0.588564	0.390088	0.194565
0	C	0.707789	0.20119	0.550499
0	C	0.852772	0.808543	0.0520093
0	C	0.0883779	0.397657	0.299391
0	C	0.463512	0.623862	0.800708
0	C	0.0036856	0.410217	0.263462
0	C	0.546901	0.606753	0.764005
0	C	0.324189	0.234079	0.522575
0	C	0.219245	0.785018	0.0250598
0	C	0.048368	0.603958	0.731766
0	C	0.505187	0.407183	0.231296
0	C	0.728027	0.779887	0.472743
0	C	0.832934	0.22899	0.970296
0	C	0.504652	0.907066	0.763627
0	C	0.0485599	0.104144	0.263493
0	C	0.831715	0.728765	0.0248827
0	C	0.72883	0.280579	0.522472
0	C	0.547424	0.106966	0.231545
0	C	0.00351089	0.909934	0.731914
0	C	0.220407	0.285291	0.970421
0	C	0.32342	0.733349	0.472736
0	C	0.859681	0.328486	0.856805
0	C	0.707939	0.680449	0.358472
0	C	0.456746	0.115552	0.106594
0	C	0.0973877	0.909897	0.608369
0	C	0.19241	0.685449	0.138478
0	C	0.344214	0.333522	0.636855
0	C	0.595314	0.898587	0.888602
0	C	0.954637	0.103989	0.387007
0	C	0.342419	0.832619	0.358248
0	C	0.195552	0.185372	0.856944
0	C	0.954493	0.604249	0.608191
0	C	0.595979	0.398235	0.106455
0	C	0.709795	0.181274	0.636933
0	C	0.856564	0.828639	0.138407
0	C	0.0976097	0.40999	0.38702
0	C	0.456028	0.615617	0.888806
0	C	0.871688	0.248651	0.809246
0	C	0.699246	0.760329	0.310491
0	C	0.545362	0.115315	0.0669873
0	C	0.00965463	0.916796	0.567572
0	C	0.180266	0.765239	0.186077
0	C	0.352924	0.253636	0.684834
0	C	0.506684	0.898888	0.928187
0	C	0.0423432	0.0969122	0.42783
0	C	0.349408	0.752603	0.310253
0	C	0.183279	0.26493	0.809055
0	C	0.0421206	0.595903	0.567436
0	C	0.50743	0.39813	0.0667368
0	C	0.702791	0.26128	0.684952
0	C	0.868773	0.749046	0.186264
0	C	0.0099919	0.418386	0.42778
0	C	0.544549	0.615595	0.928582
0	C	0.775921	0.373328	0.834137
0	C	0.793534	0.636044	0.340929
0	C	0.409274	0.0335655	0.0897829
0	C	0.149552	0.990002	0.595294
0	C	0.276186	0.640647	0.161179
0	C	0.258581	0.377881	0.654369
0	C	0.642838	0.980561	0.905372
0	C	0.902399	0.0239018	0.399927
0	C	0.25716	0.877987	0.341473
0	C	0.280049	0.141292	0.835164
0	C	0.901127	0.524908	0.594993
0	C	0.643254	0.480286	0.0894283
0	C	0.795021	0.135868	0.653723
0	C	0.77209	0.872757	0.160191
0	C	0.151043	0.489288	0.40023
0	C	0.408668	0.53358	0.905687
0	C	0.937453	0.385781	0.841405
0	C	0.631605	0.62311	0.338476
0	C	0.405038	0.189482	0.074605
0	C	0.145475	0.834575	0.574588
0	C	0.114674	0.628078	0.153795
0	C	0.420517	0.390894	0.656871
0	C	0.646946	0.824617	0.92062
0	C	0.906593	0.179282	0.420897
0	C	0.419249	0.889015	0.337438
0	C	0.118598	0.127308	0.840799
0	C	0.907719	0.680376	0.57443
0	C	0.64788	0.324284	0.0747416
0	C	0.632933	0.1249	0.657701
0	C	0.933568	0.886642	0.154557
0	C	0.144328	0.333808	0.420748
0	C	0.404165	0.689572	0.920573
0	O	0.0581321	0.383718	0.065491
0	O	0.491484	0.632977	0.566196
0	O	0.400576	0.251724	0.32613
0	O	0.152156	0.766677	0.826101
0	O	0.994003	0.630732	0.929726
0	O	0.560726	0.381042	0.42908
0	O	0.651485	0.762361	0.669128
0	O	0.899917	0.247508	0.16927
0	O	0.560465	0.880745	0.565944
0	O	0.994006	0.130118	0.0654789
0	O	0.899458	0.747278	0.826047
0	O	0.651896	0.26268	0.326207
0	O	0.491753	0.133432	0.429245
0	O	0.0581225	0.884092	0.929933
0	O	0.152488	0.266967	0.1692
0	O	0.400257	0.751347	0.669019
0	H	0.881848	0.437224	0.974646
0	H	0.674298	0.572586	0.475084
0	H	0.32947	0.151844	0.212433
0	H	0.223168	0.871698	0.71492
0	H	0.17027	0.576791	0.0205496
0	H	0.377896	0.44139	0.520287
0	H	0.722642	0.862377	0.782803
0	H	0.828929	0.142517	0.280466
0	H	0.377159	0.940672	0.474539
0	H	0.17215	0.0768948	0.974963
0	H	0.828703	0.642456	0.714836
0	H	0.723207	0.36237	0.212458
0	H	0.67505	0.07326	0.520595
0	H	0.879949	0.937173	0.020465
0	H	0.223388	0.371879	0.280361
0	H	0.328897	0.651704	0.782759
0	H	0.946875	0.42132	0.301286
0	H	0.603417	0.593627	0.80164
0	H	0.300605	0.185478	0.561454
0	H	0.2393	0.834247	0.0648565
0	H	0.105154	0.592762	0.69394
0	H	0.44864	0.420265	0.193685
0	H	0.751638	0.828459	0.433837
0	H	0.812929	0.179706	0.930533
0	H	0.44803	0.920212	0.801128
0	H	0.105341	0.0929145	0.301303
0	H	0.811632	0.679524	0.064611
0	H	0.752507	0.329292	0.561192
0	H	0.604013	0.093768	0.194027
0	H	0.946718	0.921122	0.694111
0	H	0.240528	0.334484	0.930646
0	H	0.299787	0.684604	0.434025
0	H	0.882428	0.263019	0.748227
0	H	0.69279	0.746082	0.248964
0	H	0.538649	0.109461	0.00437066
0	H	0.0179368	0.921924	0.504972
0	H	0.169603	0.75082	0.247097
0	H	0.359583	0.267895	0.746343
0	H	0.513386	0.904998	0.990785
0	H	0.0340272	0.091884	0.490434
0	H	0.355068	0.766732	0.24863
0	H	0.173767	0.250261	0.747943
0	H	0.0337962	0.591803	0.504783
0	H	0.514294	0.403795	0.00410202
0	H	0.697245	0.247128	0.74658
0	H	0.878548	0.7637	0.247347
0	H	0.0183449	0.422647	0.490425
0	H	0.53761	0.610064	0.991221
0	H	0.927677	0.2128	0.829039
0	H	0.64193	0.796037	0.327192
0	H	0.581528	0.173357	0.0784336
0	H	0.96864	0.862132	0.578373
0	H	0.124163	0.800957	0.166329
0	H	0.410122	0.217829	0.668011
0	H	0.470589	0.84077	0.916927
0	H	0.0835296	0.151443	0.416982
0	H	0.406507	0.716191	0.326249
0	H	0.126467	0.300057	0.828058
0	H	0.0844799	0.649444	0.578847
0	H	0.471368	0.340058	0.0782388
0	H	0.64562	0.297614	0.669027
0	H	0.925397	0.713742	0.167101
0	H	0.967669	0.364799	0.416497
0	H	0.580781	0.673552	0.91701
0	H	0.815461	0.207567	0.811921
0	H	0.755137	0.801394	0.316455
0	H	0.586888	0.0641989	0.0862189
0	H	0.972725	0.971362	0.585972
0	H	0.236381	0.806461	0.183378
0	H	0.296945	0.212665	0.679018
0	H	0.465091	0.949878	0.90878
0	H	0.0790929	0.0422073	0.409497
0	H	0.293115	0.71218	0.316924
0	H	0.23883	0.306777	0.812496
0	H	0.0775799	0.540215	0.585229
0	H	0.465699	0.449231	0.0857023
0	H	0.759021	0.301775	0.678208
0	H	0.813076	0.707368	0.182982
0	H	0.974479	0.474002	0.409878
0	H	0.586124	0.564328	0.909738
0	H	0.776011	0.39125	0.773099
0	H	0.798165	0.618422	0.279969
0	H	0.395169	0.026833	0.0281802
0	H	0.165478	0.998633	0.534249
0	H	0.276031	0.622621	0.222189
0	H	0.253984	0.395663	0.71529
0	H	0.657097	0.987271	0.966945
0	H	0.886431	0.0151612	0.460951
0	H	0.251872	0.895303	0.280478
0	H	0.280952	0.12355	0.774083
0	H	0.88457	0.516935	0.534006
0	H	0.657857	0.486545	0.0278716
0	H	0.800268	0.118489	0.714698
0	H	0.771261	0.890642	0.221236
0	H	0.167736	0.497168	0.461201
0	H	0.394046	0.527204	0.967228
0	H	0.719063	0.334988	0.844571
0	H	0.849242	0.674589	0.355067
0	H	0.447204	0.979759	0.107705
0	H	0.114158	0.0448398	0.614689
0	H	0.333015	0.679074	0.150856
0	H	0.202905	0.339249	0.640359
0	H	0.604857	0.034367	0.887539
0	H	0.937742	0.969066	0.380454
0	H	0.201148	0.840263	0.35649
0	H	0.336378	0.180129	0.846316
0	H	0.935757	0.469334	0.613823
0	H	0.605077	0.534247	0.106698
0	H	0.851053	0.173605	0.638757
0	H	0.715747	0.833905	0.149165
0	H	0.116386	0.544892	0.381529
0	H	0.446762	0.479604	0.888319
0	H	0.768153	0.431254	0.867244
0	H	0.798683	0.577925	0.374127
0	H	0.347163	0.0304662	0.120454
0	H	0.211123	0.988838	0.627109
0	H	0.284061	0.582795	0.127993
0	H	0.25334	0.435902	0.621032
0	H	0.704869	0.983676	0.874571
0	H	0.840846	0.0251701	0.368093
0	H	0.253374	0.936378	0.374428
0	H	0.287806	0.083352	0.868213
0	H	0.83984	0.526665	0.62722
0	H	0.705101	0.483754	0.120512
0	H	0.798822	0.0775218	0.620713
0	H	0.764291	0.930619	0.127033
0	H	0.212261	0.487551	0.367896
0	H	0.346819	0.530242	0.874598
0	H	0.945925	0.397622	0.7798
0	H	0.628192	0.610668	0.276599
0	H	0.397968	0.185521	0.011896
0	H	0.151712	0.839086	0.511832
0	H	0.106101	0.616255	0.215393
0	H	0.423833	0.40346	0.718737
0	H	0.654074	0.828648	0.983321
0	H	0.900396	0.174703	0.483651
0	H	0.422103	0.901142	0.275481
0	H	0.111372	0.115028	0.779141
0	H	0.901753	0.676123	0.511653
0	H	0.654979	0.328001	0.0120322
0	H	0.630056	0.112751	0.719657
0	H	0.940754	0.899	0.216207
0	H	0.150442	0.338097	0.483511
0	H	0.397065	0.685794	0.983279
0	H	0.929731	0.446467	0.869964
0	H	0.637072	0.562582	0.36771
0	H	0.339863	0.191907	0.0987721
0	H	0.210967	0.82957	0.597842
0	H	0.122532	0.567384	0.125276
0	H	0.4151	0.451369	0.62753
0	H	0.712097	0.822095	0.896411
0	H	0.841089	0.184324	0.397684
0	H	0.414835	0.949737	0.366475
0	H	0.126442	0.0668171	0.869698
0	H	0.842222	0.686335	0.597466
0	H	0.713012	0.322111	0.0990023
0	H	0.637354	0.0641811	0.628666
0	H	0.925819	0.947103	0.125589
0	H	0.209759	0.327713	0.397597
0	H	0.339034	0.691788	0.896318
0	H	0.997636	0.359026	0.863512
0	H	0.569811	0.650024	0.356413
0	H	0.435948	0.249657	0.087958
0	H	0.112504	0.775949	0.587859
0	H	0.0544963	0.654731	0.131585
0	H	0.48233	0.36393	0.639053
0	H	0.615966	0.764465	0.907353
0	H	0.939582	0.237906	0.407655
0	H	0.480861	0.861353	0.354858
0	H	0.0577761	0.153656	0.861864
0	H	0.941539	0.738512	0.587977
0	H	0.61718	0.264079	0.0883352
0	H	0.571332	0.152558	0.640273
0	H	0.994366	0.860197	0.133558
0	H	0.110377	0.275727	0.407299
0	H	0.434909	0.749767	0.907028
