#******************************************
#
# CIF file created by Zeo++
# Zeo++ is an open source package to
# analyze microporous materials
#
#*******************************************

_cell_length_a		16.0488(0)
_cell_length_b		13.8551(0)
_cell_length_c		14.8356(0)
_cell_angle_alpha		90(0)
_cell_angle_beta		90(0)
_cell_angle_gamma		90(0)

_symmetry_space_group_name_H-M		'P1'
_symmetry_Int_Tables_number		1
_symmetry_cell_setting		Monoclinic

loop_
_symmetry_equiv_pos_as_xyz
'+x,+y,+z'

loop_
_atom_site_label
_atom_site_type_symbol
_atom_site_fract_x
_atom_site_fract_y
_atom_site_fract_z
0	O	0.822402	0.797981	0.179361
0	O	0.67787	0.216822	0.655147
0	O	0.177677	0.292478	0.296103
0	O	0.322389	0.721929	0.77181
0	O	0.178131	0.216596	0.77204
0	O	0.322658	0.797741	0.296196
0	O	0.822847	0.722091	0.655255
0	O	0.678127	0.292641	0.17956
0	O	0.764764	0.6237	0.119484
0	O	0.735892	0.391076	0.595256
0	O	0.236037	0.118284	0.35633
0	O	0.264386	0.896073	0.832
0	O	0.235774	0.390902	0.831828
0	O	0.264856	0.623545	0.356353
0	O	0.764504	0.896281	0.595033
0	O	0.736387	0.118446	0.119588
0	O	0.87526	0.94287	0.0344862
0	O	0.624386	0.0716058	0.510547
0	O	0.124169	0.437059	0.440782
0	O	0.375201	0.577956	0.916825
0	O	0.125284	0.0717176	0.916907
0	O	0.37621	0.94297	0.440799
0	O	0.876316	0.577481	0.510571
0	O	0.625331	0.436587	0.0345475
0	C	0.8319	0.71165	0.23813
0	C	0.668581	0.30321	0.713882
0	C	0.168584	0.206004	0.237514
0	C	0.331672	0.808314	0.713142
0	C	0.168633	0.302888	0.713222
0	C	0.331935	0.711331	0.237499
0	C	0.831961	0.808568	0.71385
0	C	0.668857	0.206252	0.238226
0	C	0.817049	0.622814	0.178181
0	C	0.683491	0.391958	0.653844
0	C	0.183569	0.117472	0.297784
0	C	0.316717	0.896917	0.773326
0	C	0.183487	0.391756	0.773141
0	C	0.317085	0.622608	0.297588
0	C	0.816986	0.89709	0.653572
0	C	0.683884	0.117635	0.178085
0	C	0.867616	0.533786	0.198942
0	C	0.632859	0.480994	0.674403
0	C	0.13288	0.0285005	0.277464
0	C	0.367374	0.985888	0.752835
0	C	0.132896	0.480759	0.752362
0	C	0.367617	0.533534	0.276903
0	C	0.867705	0.986061	0.673862
0	C	0.633194	0.0286759	0.198452
0	C	0.95976	0.557261	0.21333
0	C	0.540731	0.457613	0.688955
0	C	0.0407115	0.0519671	0.263165
0	C	0.459524	0.962312	0.738755
0	C	0.0407494	0.457235	0.738022
0	C	0.45977	0.556924	0.26239
0	C	0.959851	0.962576	0.688191
0	C	0.54102	0.0522269	0.212579
0	C	0.971282	0.625206	0.294058
0	C	0.529233	0.389936	0.769878
0	C	0.029274	0.118953	0.18177
0	C	0.471018	0.895095	0.657536
0	C	0.0292401	0.38932	0.657294
0	C	0.471264	0.624586	0.18146
0	C	0.971281	0.895575	0.769575
0	C	0.529514	0.119431	0.293805
0	C	0.920604	0.719651	0.28165
0	C	0.579946	0.29546	0.757656
0	C	0.0799469	0.213481	0.193627
0	C	0.420396	0.800598	0.669539
0	C	0.0799284	0.294881	0.669711
0	C	0.420556	0.719071	0.193684
0	C	0.920601	0.801061	0.757727
0	C	0.58012	0.213941	0.281799
0	C	0.963292	0.780877	0.211186
0	C	0.537073	0.234067	0.687473
0	C	0.036906	0.274972	0.263623
0	C	0.463273	0.739327	0.739818
0	C	0.0372465	0.233657	0.740168
0	C	0.463454	0.780482	0.263849
0	C	0.963617	0.739563	0.687719
0	C	0.53724	0.275191	0.211516
0	C	0.903154	0.827676	0.157789
0	C	0.597062	0.186985	0.634011
0	C	0.096776	0.322135	0.317133
0	C	0.403242	0.692471	0.793256
0	C	0.0973819	0.186873	0.793585
0	C	0.403473	0.827577	0.317315
0	C	0.90374	0.692411	0.634222
0	C	0.59727	0.322058	0.158084
0	C	0.927657	0.890366	0.088996
0	C	0.57222	0.123772	0.565886
0	C	0.071852	0.385206	0.385354
0	C	0.427828	0.629983	0.862156
0	C	0.072871	0.124162	0.862355
0	C	0.428344	0.890784	0.385441
0	C	0.928635	0.629335	0.565997
0	C	0.572684	0.384529	0.0891671
0	C	0.0138834	0.899916	0.0717362
0	C	0.4859	0.113804	0.549427
0	C	0.985546	0.395322	0.401688
0	C	0.514046	0.62037	0.879277
0	C	0.986648	0.11461	0.879602
0	C	0.514662	0.900731	0.401893
0	C	0.0149429	0.619203	0.549639
0	C	0.486479	0.394148	0.0720591
0	C	0.07224	0.846494	0.120335
0	C	0.427729	0.167762	0.597592
0	C	0.927492	0.341219	0.353444
0	C	0.572325	0.673852	0.830613
0	C	0.928293	0.168012	0.831009
0	C	0.572815	0.846745	0.353722
0	C	0.0730159	0.673305	0.597875
0	C	0.428189	0.340691	0.120719
0	C	0.0474927	0.78399	0.190657
0	C	0.452802	0.2309	0.667317
0	C	0.95262	0.277999	0.283812
0	C	0.547504	0.736383	0.760362
0	C	0.953027	0.230529	0.760678
0	C	0.547729	0.783623	0.283999
0	C	0.0478989	0.736526	0.667515
0	C	0.453011	0.278116	0.19097
0	C	0.105426	0.715122	0.237104
0	C	0.394969	0.299943	0.713579
0	C	0.894916	0.20863	0.237776
0	C	0.605324	0.805534	0.714099
0	C	0.895103	0.299367	0.714216
0	C	0.605539	0.71456	0.237728
0	C	0.105622	0.805878	0.713559
0	C	0.395196	0.208953	0.237189
0	C	0.0637849	0.651585	0.309646
0	C	0.436749	0.363703	0.785807
0	C	0.936798	0.144944	0.165591
0	C	0.563518	0.868982	0.641641
0	C	0.936744	0.362917	0.641681
0	C	0.563753	0.650811	0.165517
0	C	0.0637483	0.869554	0.785767
0	C	0.436996	0.145476	0.309652
0	C	0.911972	0.7677	0.372986
0	C	0.588692	0.247521	0.849049
0	C	0.0886085	0.260897	0.10201
0	C	0.411828	0.752994	0.57803
0	C	0.0885523	0.246837	0.578369
0	C	0.411795	0.766963	0.102274
0	C	0.911925	0.753616	0.849328
0	C	0.58867	0.261565	0.373312
0	C	0.960611	0.83816	0.403571
0	C	0.54002	0.177094	0.879644
0	C	0.0397926	0.331088	0.0712057
0	C	0.460524	0.682663	0.547302
0	C	0.0399367	0.176355	0.547802
0	C	0.460473	0.837361	0.0716218
0	C	0.960663	0.683325	0.880079
0	C	0.53989	0.331816	0.404045
0	H	0.780281	0.719659	0.287233
0	H	0.720308	0.29513	0.762861
0	H	0.220306	0.21399	0.188508
0	H	0.280069	0.800353	0.664014
0	H	0.220236	0.294852	0.664108
0	H	0.280195	0.719369	0.188538
0	H	0.780225	0.800588	0.762842
0	H	0.720447	0.214245	0.287369
0	H	0.841566	0.497645	0.259724
0	H	0.658974	0.517386	0.735021
0	H	0.158825	0.992462	0.216606
0	H	0.341478	0.0216797	0.691817
0	H	0.15891	0.516859	0.691543
0	H	0.341503	0.497262	0.216244
0	H	0.841728	0.0221551	0.73468
0	H	0.659071	0.99279	0.259428
0	H	0.860328	0.480263	0.143786
0	H	0.640085	0.53436	0.619089
0	H	0.140274	0.97523	0.332749
0	H	0.359884	0.039274	0.808011
0	H	0.140195	0.534314	0.807488
0	H	0.360377	0.480086	0.332134
0	H	0.860334	0.0392735	0.618519
0	H	0.640666	0.975353	0.143228
0	H	0.995029	0.489438	0.224931
0	H	0.505483	0.525506	0.700467
0	H	0.0051956	0.984216	0.252183
0	H	0.495118	0.0299704	0.727729
0	H	0.00544038	0.52508	0.726427
0	H	0.495	0.488997	0.250868
0	H	0.995387	0.0303253	0.699199
0	H	0.505462	0.984544	0.223586
0	H	0.986617	0.589785	0.15157
0	H	0.513718	0.424975	0.627339
0	H	0.0139121	0.0850815	0.324635
0	H	0.486132	0.929253	0.80035
0	H	0.0139157	0.424712	0.799763
0	H	0.486769	0.589545	0.323991
0	H	0.986655	0.929467	0.626726
0	H	0.514404	0.0852599	0.150958
0	H	0.948199	0.587413	0.356185
0	H	0.552104	0.428074	0.831752
0	H	0.05228	0.080471	0.120153
0	H	0.447759	0.933218	0.595644
0	H	0.0523194	0.427102	0.595147
0	H	0.448393	0.586459	0.119583
0	H	0.948269	0.934064	0.831204
0	H	0.55277	0.0812971	0.355666
0	H	0.0337719	0.948279	0.0175296
0	H	0.465453	0.0640266	0.496366
0	H	0.965079	0.444962	0.454746
0	H	0.533941	0.572103	0.933471
0	H	0.966757	0.0662135	0.933783
0	H	0.535133	0.950506	0.454954
0	H	0.0353894	0.569563	0.496579
0	H	0.466576	0.442387	0.0178424
0	H	0.137874	0.852182	0.102497
0	H	0.362012	0.16187	0.580024
0	H	0.861754	0.346927	0.370981
0	H	0.637983	0.668304	0.848408
0	H	0.862654	0.162331	0.848822
0	H	0.638533	0.852615	0.3713
0	H	0.138746	0.667593	0.580315
0	H	0.362532	0.346233	0.102944
0	H	0.133746	0.667884	0.184909
0	H	0.366524	0.346939	0.661274
0	H	0.866731	0.161529	0.290187
0	H	0.633463	0.852826	0.766376
0	H	0.866752	0.346598	0.766399
0	H	0.633988	0.667554	0.290027
0	H	0.133807	0.852976	0.661146
0	H	0.367102	0.161656	0.184892
0	H	0.158071	0.754756	0.26893
0	H	0.34231	0.260461	0.74558
0	H	0.842069	0.247788	0.205799
0	H	0.658106	0.76618	0.682281
0	H	0.84247	0.259729	0.682389
0	H	0.658196	0.754041	0.205709
0	H	0.158454	0.766684	0.74553
0	H	0.342377	0.248259	0.268985
0	H	0.0687306	0.689104	0.375653
0	H	0.431859	0.32658	0.851992
0	H	0.931902	0.181903	0.0993382
0	H	0.568455	0.831601	0.575574
0	H	0.931821	0.325396	0.575677
0	H	0.568647	0.687899	0.0993145
0	H	0.0686263	0.832548	0.851997
0	H	0.432031	0.182868	0.375723
0	H	0.100721	0.584505	0.318006
0	H	0.399823	0.430825	0.794146
0	H	0.900018	0.0777138	0.157222
0	H	0.600321	0.936212	0.633251
0	H	0.899782	0.429962	0.633308
0	H	0.600646	0.583672	0.157192
0	H	0.100545	0.93677	0.794167
0	H	0.40023	0.0782764	0.318016
0	H	0.862519	0.736945	0.41491
0	H	0.638333	0.27791	0.890821
0	H	0.138163	0.230267	0.0602801
0	H	0.362456	0.783987	0.536138
0	H	0.13797	0.277624	0.536416
0	H	0.362152	0.73656	0.0605281
0	H	0.862387	0.784272	0.89107
0	H	0.638077	0.230627	0.415192
0	H	0.817065	0.941744	0.0576647
0	H	0.682207	0.0699899	0.534781
0	H	0.182289	0.43637	0.417489
0	H	0.316821	0.581154	0.894482
0	H	0.183463	0.0727953	0.893694
0	H	0.318374	0.944583	0.416609
0	H	0.818196	0.578181	0.533861
0	H	0.683711	0.433352	0.0568989
0	H	0.0112163	0.869452	0.365301
0	H	0.489299	0.1459	0.841444
0	H	0.989162	0.362416	0.109455
0	H	0.511031	0.651215	0.585603
0	H	0.989341	0.145039	0.586067
0	H	0.511192	0.868592	0.10981
0	H	0.0112442	0.651946	0.841792
0	H	0.489333	0.363169	0.365756
0	H	0.953405	0.869232	0.469994
0	H	0.547254	0.145854	0.946016
0	H	0.0468093	0.361935	0.00465136
0	H	0.45345	0.651906	0.480743
0	H	0.0471339	0.145301	0.481369
0	H	0.45325	0.868529	0.00521794
0	H	0.953619	0.652422	0.946604
0	H	0.546951	0.362606	0.470599
