#******************************************
#
# CIF file created by Zeo++
# Zeo++ is an open source package to
# analyze microporous materials
#
#*******************************************

_cell_length_a		19.9599(0)
_cell_length_b		19.9746(0)
_cell_length_c		4.00906(0)
_cell_angle_alpha		90(0)
_cell_angle_beta		90(0)
_cell_angle_gamma		120.102(0)

_symmetry_space_group_name_H-M		'P1'
_symmetry_Int_Tables_number		1
_symmetry_cell_setting		Monoclinic

loop_
_symmetry_equiv_pos_as_xyz
'+x,+y,+z'

loop_
_atom_site_label
_atom_site_type_symbol
_atom_site_fract_x
_atom_site_fract_y
_atom_site_fract_z
0	C	0.803507	0.559755	0.380491
0	C	0.443095	0.242806	0.380651
0	C	0.759704	0.199998	0.380331
0	C	0.200532	0.44251	0.380463
0	C	0.560923	0.759459	0.380653
0	C	0.244324	0.802268	0.380269
0	C	0.796172	0.491644	0.525828
0	C	0.5112	0.303741	0.526562
0	C	0.698793	0.20686	0.526128
0	C	0.207784	0.51056	0.526022
0	C	0.492765	0.698555	0.526473
0	C	0.305227	0.795394	0.526082
0	H	0.739124	0.439186	0.530704
0	H	0.563702	0.299453	0.533098
0	H	0.702791	0.263481	0.530753
0	H	0.264841	0.563049	0.531003
0	H	0.440267	0.702878	0.532848
0	H	0.301205	0.738763	0.53074
0	C	0.860188	0.491452	0.655647
0	C	0.511171	0.367827	0.656082
0	C	0.634628	0.142777	0.656481
0	C	0.14378	0.510736	0.656025
0	C	0.492807	0.634459	0.656018
0	C	0.369396	0.859474	0.656454
0	H	0.853239	0.43833	0.768562
0	H	0.564053	0.41416	0.768372
0	H	0.588446	0.14957	0.768824
0	H	0.150733	0.563732	0.768465
0	H	0.439935	0.588096	0.768308
0	H	0.415557	0.852647	0.768873
0	C	0.934624	0.559278	0.643001
0	C	0.443532	0.374733	0.642607
0	C	0.627862	0.068346	0.643201
0	C	0.0692151	0.442862	0.643525
0	C	0.560467	0.627554	0.642959
0	C	0.376141	0.933895	0.643109
0	C	0.941767	0.628096	0.498084
0	C	0.374718	0.312781	0.498089
0	C	0.689671	0.0616504	0.497159
0	C	0.0622168	0.374204	0.498413
0	C	0.629347	0.689492	0.498128
0	C	0.314342	0.940606	0.497112
0	H	0.998312	0.680891	0.485561
0	H	0.321799	0.316177	0.485356
0	H	0.686161	0.00537233	0.483423
0	H	0.00572247	0.321407	0.485938
0	H	0.682263	0.686079	0.485375
0	H	0.317843	0.996883	0.483523
0	C	0.87736	0.628231	0.373239
0	C	0.375138	0.248537	0.372681
0	C	0.754007	0.126414	0.37219
0	C	0.126658	0.374138	0.373433
0	C	0.62889	0.753738	0.372577
0	C	0.25001	0.875847	0.372181
0	H	0.882316	0.680204	0.258536
0	H	0.32275	0.201755	0.257559
0	H	0.801114	0.121451	0.256718
0	H	0.121623	0.322085	0.258893
0	H	0.681287	0.800535	0.257406
0	H	0.202884	0.880778	0.256764
0	H	0.951383	0.473546	0.15364
0	H	0.529257	0.477922	0.151392
0	H	0.524696	0.0513079	0.154364
0	H	0.0524285	0.528789	0.153253
0	H	0.474356	0.523409	0.152596
0	H	0.479125	0.950601	0.154204
0	O	0.673611	0.498838	0.240779
0	O	0.504805	0.175013	0.243235
0	O	0.829471	0.32993	0.242725
0	O	0.330394	0.503429	0.240989
0	O	0.499211	0.827233	0.243013
0	O	0.174534	0.672337	0.242857
0	O	0.744707	0.617663	0.0980813
0	O	0.385809	0.125784	0.0985101
0	O	0.87643	0.258312	0.099297
0	O	0.259331	0.384599	0.0980843
0	O	0.618215	0.876476	0.0985
0	O	0.127577	0.743953	0.0992987
0	N	0.73716	0.558906	0.231973
0	N	0.444326	0.177524	0.23283
0	N	0.825442	0.266273	0.232666
0	N	0.266852	0.443336	0.232006
0	N	0.559699	0.824736	0.232742
0	N	0.17856	0.735996	0.232735
0	N	0.000855948	0.56065	0.755907
0	N	0.442226	0.439955	0.75236
0	N	0.56294	0.00219234	0.757169
0	N	0.0030659	0.441247	0.758071
0	N	0.561768	0.562217	0.753126
0	N	0.440975	1.04394e-06	0.757744
0	H	0.0533631	0.60963	0.719692
0	H	0.390744	0.439928	0.738947
0	H	0.559843	0.949878	0.724385
0	H	0.950481	0.392465	0.720203
0	H	0.613504	0.562869	0.744633
0	H	0.444296	0.0524111	0.72453
0	C	0.00186898	0.501075	0.971812
0	C	0.501907	0.500954	0.969158
0	C	0.502073	0.00114693	0.972129
