#******************************************
#
# CIF file created by Zeo++
# Zeo++ is an open source package to
# analyze microporous materials
#
#*******************************************

_cell_length_a		11.6453(0)
_cell_length_b		11.7438(0)
_cell_length_c		7.77091(0)
_cell_angle_alpha		90(0)
_cell_angle_beta		90(0)
_cell_angle_gamma		121.302(0)

_symmetry_space_group_name_H-M		'P1'
_symmetry_Int_Tables_number		1
_symmetry_cell_setting		Monoclinic

loop_
_symmetry_equiv_pos_as_xyz
'+x,+y,+z'

loop_
_atom_site_label
_atom_site_type_symbol
_atom_site_fract_x
_atom_site_fract_y
_atom_site_fract_z
0	O	0.313734	0.632049	0.0559608
0	O	0.429241	0.693768	0.396772
0	O	0.361294	0.74573	0.726702
0	O	0.641557	0.300697	0.0204715
0	O	0.705281	0.419167	0.681275
0	O	0.754045	0.349922	0.351418
0	C	0.111437	0.822482	0.200071
0	C	0.230629	0.29821	0.552334
0	C	0.758778	0.950185	0.896316
0	C	0.837589	0.102451	0.878197
0	C	0.30509	0.223151	0.528987
0	C	0.957796	0.743261	0.182313
0	C	0.163604	0.727657	0.180398
0	C	0.329647	0.447217	0.526434
0	C	0.609442	0.896777	0.866846
0	C	0.741009	0.152946	0.899248
0	C	0.455794	0.320714	0.552294
0	C	0.905057	0.595425	0.211805
0	C	0.0998586	0.633253	0.0215918
0	C	0.420748	0.477149	0.364055
0	C	0.583658	0.959272	0.704346
0	C	0.645146	0.0895384	0.0574174
0	C	0.48752	0.41208	0.713902
0	C	0.968773	0.570548	0.374192
0	C	0.169795	0.550956	0.0404214
0	C	0.508323	0.632095	0.379848
0	C	0.427312	0.888673	0.715012
0	C	0.561019	0.157895	0.0369104
0	C	0.643663	0.498121	0.69708
0	C	0.898305	0.415724	0.363127
0	C	0.110296	0.496974	0.221895
0	C	0.565568	0.628822	0.559393
0	C	0.429147	0.946368	0.895777
0	C	0.507792	0.0982375	0.855653
0	C	0.63994	0.553838	0.516874
0	C	0.956983	0.418057	0.182496
0	C	0.949743	0.529785	0.0727338
0	C	0.522434	0.431525	0.41107
0	C	0.632361	0.107631	0.754399
0	C	0.542285	0.940323	0.00582516
0	C	0.442292	0.513451	0.666497
0	C	0.118586	0.619546	0.324563
0	C	0.1393	0.451805	0.896492
0	C	0.607119	0.704539	0.234681
0	C	0.359953	0.918267	0.568967
0	C	0.459881	0.128058	0.179286
0	C	0.716207	0.596412	0.842119
0	C	0.927668	0.348039	0.508346
0	H	0.351251	0.687092	0.946969
0	H	0.374265	0.675933	0.288127
0	H	0.382017	0.710582	0.619143
0	H	0.695935	0.339003	0.130027
0	H	0.685683	0.363569	0.789266
0	H	0.718814	0.370704	0.459155
0	H	0.156926	0.901383	0.100887
0	H	0.146575	0.261759	0.460072
0	H	0.795798	0.905274	0.803459
0	H	0.918656	0.148591	0.975279
0	H	0.268906	0.141031	0.623132
0	H	0.911928	0.779367	0.275075
0	H	0.14222	0.873542	0.325833
0	H	0.185458	0.279934	0.682174
0	H	0.774217	0.921002	0.0256246
0	H	0.887493	0.132665	0.751296
0	H	0.285129	0.176737	0.400165
0	H	0.92818	0.757952	0.0527555
0	H	0.275213	0.786388	0.169968
0	H	0.2736	0.50015	0.517993
0	H	0.553972	0.786125	0.85696
0	H	0.799497	0.26358	0.909945
0	H	0.508428	0.264414	0.560684
0	H	0.793473	0.539744	0.222013
0	H	0.111658	0.682286	0.897942
0	H	0.367396	0.436901	0.242976
0	H	0.624615	0.948188	0.583598
0	H	0.694135	0.102525	0.181666
0	H	0.447509	0.360038	0.835645
0	H	0.957342	0.6117	0.49429
0	H	0.151565	0.444645	0.289124
0	H	0.623089	0.724715	0.624397
0	H	0.331942	0.904727	0.959047
0	H	0.454411	0.137821	0.786945
0	H	0.7361	0.609864	0.450543
0	H	0.915498	0.321514	0.119566
0	H	0.882611	0.490107	0.961162
0	H	0.558417	0.403529	0.297875
0	H	0.664488	0.174637	0.643372
0	H	0.502094	0.873016	0.116627
0	H	0.414751	0.549992	0.779406
0	H	0.185434	0.650661	0.436461
0	H	0.178373	0.386934	0.925584
0	H	0.669459	0.811589	0.262095
0	H	0.253145	0.877486	0.596069
0	H	0.394645	0.166633	0.147669
0	H	0.824001	0.659619	0.814881
0	H	0.881109	0.240997	0.4835
0	H	0.0314779	0.389442	0.869901
0	H	0.673348	0.666174	0.21004
0	H	0.40672	0.0250158	0.54324
0	H	0.396452	0.0214109	0.206746
0	H	0.676179	0.660993	0.867094
0	H	0.0353409	0.390318	0.529313
0	H	0.187535	0.505567	0.776551
0	H	0.552313	0.693575	0.114251
0	H	0.36654	0.871835	0.449215
0	H	0.513449	0.176778	0.299218
0	H	0.705468	0.541786	0.962245
0	H	0.885299	0.358995	0.62943
