#******************************************
#
# CIF file created by Zeo++
# Zeo++ is an open source package to
# analyze microporous materials
#
#*******************************************

_cell_length_a		9.80752(0)
_cell_length_b		31.4334(0)
_cell_length_c		24.7557(0)
_cell_angle_alpha		90(0)
_cell_angle_beta		90(0)
_cell_angle_gamma		90(0)

_symmetry_space_group_name_H-M		'P1'
_symmetry_Int_Tables_number		1
_symmetry_cell_setting		Monoclinic

loop_
_symmetry_equiv_pos_as_xyz
'+x,+y,+z'

loop_
_atom_site_label
_atom_site_type_symbol
_atom_site_fract_x
_atom_site_fract_y
_atom_site_fract_z
0	Si	0.537932	0.0954432	0.877937
0	Si	0.134904	0.885075	0.339512
0	Si	0.639259	0.566481	0.377357
0	Si	0.0388375	0.375958	0.840831
0	O	0.579377	0.116519	0.00777817
0	O	0.0891706	0.851144	0.462266
0	O	0.603725	0.599491	0.252826
0	O	0.0831533	0.354778	0.711404
0	Si	0.604621	0.103576	0.947484
0	Si	0.0594493	0.86231	0.402016
0	Si	0.573663	0.590016	0.313724
0	Si	0.107382	0.3675	0.771834
0	O	0.469255	0.0635483	0.839361
0	O	0.205918	0.922589	0.312521
0	O	0.722572	0.533417	0.40855
0	O	0.962491	0.405046	0.880711
0	N	0.74116	0.0258999	0.274179
0	N	0.928234	0.933888	0.728071
0	N	0.43476	0.520605	0.981337
0	N	0.232936	0.438049	0.441432
0	O	0.114629	0.237365	0.168103
0	O	0.547655	0.72994	0.62398
0	O	0.0523148	0.721648	0.0896254
0	O	0.621786	0.231442	0.551972
0	O	0.356643	0.206633	0.205084
0	O	0.308264	0.764556	0.660718
0	O	0.815255	0.68537	0.0526065
0	O	0.858912	0.263787	0.514038
0	O	0.322659	0.277853	0.202828
0	O	0.321699	0.69266	0.660725
0	O	0.824217	0.757317	0.0519138
0	O	0.843797	0.1921	0.518733
0	O	0.436483	0.127975	0.216406
0	O	0.247023	0.844459	0.669307
0	O	0.752482	0.605561	0.0447099
0	O	0.939646	0.340109	0.501957
0	O	0.392198	0.0683878	0.168306
0	O	0.287833	0.902861	0.618595
0	O	0.799951	0.548296	0.0965344
0	O	0.887012	0.400977	0.54603
0	O	0.729498	0.154174	0.182945
0	O	0.94607	0.825145	0.641302
0	O	0.452362	0.624976	0.0746843
0	O	0.233434	0.317585	0.536285
0	O	0.412166	0.199735	0.989302
0	O	0.239118	0.76508	0.446302
0	O	0.74766	0.685874	0.267684
0	O	0.914218	0.273101	0.731673
0	O	0.191178	0.159576	0.968748
0	O	0.470886	0.794649	0.422685
0	O	0.980473	0.656677	0.291345
0	O	0.690283	0.311029	0.749759
0	O	0.190765	0.0911653	0.939944
0	O	0.463254	0.856172	0.37538
0	O	0.975529	0.594847	0.338075
0	O	0.688303	0.37895	0.780493
0	O	0.0475705	0.0920832	0.185489
0	O	0.622195	0.87538	0.63264
0	O	0.131809	0.576542	0.0813828
0	O	0.546157	0.376404	0.531923
0	O	0.874182	0.0599053	0.141478
0	O	0.790546	0.911201	0.589501
0	O	0.301121	0.539937	0.123236
0	O	0.376444	0.409762	0.5768
0	O	0.89316	0.992124	0.216144
0	O	0.779205	0.972633	0.673604
0	O	0.291011	0.480752	0.0368639
0	O	0.380131	0.474241	0.498889
0	O	0.522567	0.0116179	0.297726
0	O	0.142486	0.947417	0.757219
0	O	0.645173	0.506572	0.948514
0	O	0.0119239	0.449168	0.420167
0	C	0.168746	0.199674	0.143337
0	C	0.496928	0.767439	0.597765
0	C	0.00304479	0.683989	0.115915
0	C	0.672397	0.269906	0.576141
0	C	0.3286	0.20253	0.147132
0	C	0.337031	0.766961	0.602791
0	C	0.843277	0.68375	0.110617
0	C	0.832399	0.26786	0.572293
0	C	0.409454	0.162771	0.129194
0	C	0.260317	0.80711	0.583745
0	C	0.768616	0.643387	0.130045
0	C	0.912612	0.307672	0.590383
0	C	0.511442	0.148076	0.172603
0	C	0.164033	0.824946	0.627355
0	C	0.671035	0.625271	0.0870181
0	C	0.0149493	0.321907	0.546868
0	C	0.641587	0.121711	0.156766
0	C	0.039632	0.853916	0.611517
0	C	0.547512	0.596341	0.103876
0	C	0.142803	0.349312	0.562425
0	C	0.676569	0.117147	0.0973859
0	C	0.000591059	0.856565	0.552478
0	C	0.51151	0.593465	0.163207
0	C	0.178544	0.353753	0.621732
0	C	0.548253	0.12233	0.0629478
0	C	0.124646	0.847241	0.517077
0	C	0.636844	0.603098	0.197784
0	C	0.050789	0.348653	0.656401
0	C	0.480228	0.166931	0.0728948
0	C	0.185237	0.801978	0.528605
0	C	0.695134	0.648552	0.185503
0	C	0.982278	0.304055	0.646997
0	C	0.383528	0.17432	0.0239876
0	C	0.276026	0.791209	0.478902
0	C	0.78554	0.659847	0.235113
0	C	0.885105	0.297567	0.695947
0	C	0.255081	0.146525	0.0191414
0	C	0.410698	0.815404	0.469605
0	C	0.920564	0.635958	0.244346
0	C	0.755018	0.324726	0.699853
0	C	0.157687	0.152581	0.0650298
0	C	0.507223	0.811143	0.516102
0	C	0.0165305	0.640579	0.197805
0	C	0.659526	0.31778	0.653553
0	C	0.117363	0.118801	0.0950498
0	C	0.55246	0.845804	0.543228
0	C	0.0638806	0.606096	0.170917
0	C	0.618889	0.351127	0.622839
0	C	0.0429706	0.128079	0.147414
0	C	0.628514	0.838576	0.59577
0	C	0.138518	0.613394	0.118107
0	C	0.543793	0.341031	0.570913
0	C	0.110996	0.164005	0.179403
0	C	0.56308	0.803646	0.63046
0	C	0.0707876	0.647962	0.0834775
0	C	0.611829	0.304766	0.539498
0	C	0.116901	0.197174	0.0831283
0	C	0.543513	0.766843	0.536839
0	C	0.0497673	0.684993	0.176744
0	C	0.620764	0.272777	0.636341
0	C	0.176501	0.234054	0.0501155
0	C	0.475968	0.729393	0.507495
0	C	0.980185	0.722159	0.205944
0	C	0.682828	0.236458	0.669702
0	C	0.96082	0.202644	0.0806352
0	C	0.698427	0.759839	0.531718
0	C	0.204289	0.692961	0.181586
0	C	0.465029	0.266736	0.639438
0	C	0.14607	0.073668	0.0817482
0	C	0.52994	0.890508	0.526271
0	C	0.0443513	0.56136	0.188253
0	C	0.647379	0.396437	0.635218
0	C	0.583837	0.20332	0.0715271
0	C	0.0758345	0.76733	0.530521
0	C	0.584735	0.68291	0.183696
0	C	0.0851833	0.267511	0.649486
0	C	0.610858	0.179496	0.200487
0	C	0.058952	0.797025	0.657822
0	C	0.564416	0.652968	0.0569658
0	C	0.11728	0.290454	0.520662
0	C	0.339118	0.24582	0.229411
0	C	0.306114	0.725435	0.685863
0	C	0.810927	0.724274	0.0270885
0	C	0.849992	0.223891	0.491009
0	C	0.349464	0.240968	0.288732
0	C	0.278074	0.731825	0.744082
0	C	0.784427	0.71754	0.96887
0	C	0.85308	0.227335	0.43131
0	C	0.383223	0.276725	0.319941
0	C	0.233371	0.697189	0.775103
0	C	0.740401	0.752176	0.937689
0	C	0.912854	0.194359	0.401296
0	C	0.391168	0.272921	0.376056
0	C	0.207422	0.702903	0.830038
0	C	0.718484	0.746712	0.882475
0	C	0.91105	0.196113	0.344931
0	C	0.363657	0.233906	0.400967
0	C	0.227049	0.742797	0.853946
0	C	0.740384	0.706931	0.858563
0	C	0.848806	0.230372	0.318546
0	C	0.328448	0.198382	0.369848
0	C	0.272057	0.777294	0.822942
0	C	0.783443	0.672333	0.889806
0	C	0.78858	0.263114	0.348521
0	C	0.322514	0.201724	0.313642
0	C	0.296626	0.771974	0.767906
0	C	0.804333	0.677443	0.945126
0	C	0.791836	0.261921	0.404946
0	C	0.379397	0.0878094	0.210162
0	C	0.3044	0.884301	0.660903
0	C	0.812269	0.56612	0.0534931
0	C	0.875464	0.37944	0.505778
0	C	0.309201	0.076024	0.260894
0	C	0.378887	0.897296	0.710099
0	C	0.883617	0.5524	0.00388258
0	C	0.799317	0.387167	0.455134
0	C	0.735247	0.0600083	0.918253
0	C	0.896956	0.894948	0.377866
0	C	0.400004	0.564275	0.339694
0	C	0.23434	0.41119	0.805157
0	C	0.865262	0.0657853	0.951839
0	C	0.777367	0.869117	0.40065
0	C	0.295869	0.59245	0.310205
0	C	0.365951	0.404616	0.772753
0	C	0.409356	0.0305227	0.807769
0	C	0.275413	0.957642	0.288345
0	C	0.809324	0.504168	0.436028
0	C	0.894067	0.434798	0.9148
0	C	0.436833	0.0373168	0.747959
0	C	0.258908	0.955465	0.227435
0	C	0.774963	0.503657	0.495835
0	C	0.916345	0.423942	0.974012
0	C	0.649506	0.150645	0.880992
0	C	0.0766553	0.822538	0.328432
0	C	0.602926	0.631077	0.385754
0	C	0.151227	0.320178	0.836601
0	C	0.698518	0.153058	0.822049
0	C	0.0424684	0.825298	0.267852
0	C	0.582237	0.630876	0.447368
0	C	0.197099	0.316461	0.895781
0	C	0.169482	0.128237	0.930208
0	C	0.485001	0.818345	0.375744
0	C	0.99668	0.632733	0.337956
0	C	0.669424	0.341627	0.78931
0	C	0.117912	0.148438	0.879939
0	C	0.530078	0.78973	0.331437
0	C	0.0436927	0.660988	0.382298
0	C	0.621621	0.319936	0.839147
0	C	0.949417	0.0610776	0.179943
0	C	0.719124	0.906847	0.628621
0	C	0.229164	0.545114	0.0844483
0	C	0.447853	0.407434	0.537317
0	C	0.954357	0.0318903	0.229405
0	C	0.716197	0.932309	0.681525
0	C	0.226047	0.520927	0.0306205
0	C	0.446394	0.435096	0.486449
0	C	0.869752	0.0511111	0.276844
0	C	0.798369	0.909187	0.726686
0	C	0.306144	0.545648	0.986165
0	C	0.362472	0.413312	0.440566
0	C	0.749515	0.990469	0.232932
0	C	0.921965	0.972481	0.691623
0	C	0.431848	0.481493	0.0169127
0	C	0.236277	0.473594	0.482731
0	C	0.73029	0.946742	0.257636
0	C	0.939468	0.0139229	0.722506
0	C	0.447224	0.44052	0.984946
0	C	0.209004	0.517064	0.458358
0	C	0.657989	0.999717	0.184981
0	C	0.0155575	0.967469	0.643357
0	C	0.529451	0.486094	0.0640054
0	C	0.146987	0.462762	0.530854
0	C	0.948218	0.046103	0.329116
0	C	0.721428	0.909647	0.779722
0	C	0.223209	0.548123	0.934723
0	C	0.440436	0.415241	0.387878
0	C	0.00854793	0.0819826	0.35285
0	C	0.668659	0.871349	0.799892
0	C	0.15873	0.586591	0.921572
0	C	0.51259	0.379025	0.371086
0	C	0.0856249	0.0775379	0.400015
0	C	0.597195	0.870968	0.848747
0	C	0.079747	0.589467	0.874737
0	C	0.590881	0.380379	0.323989
0	C	0.101847	0.0374739	0.423769
0	C	0.579062	0.908672	0.877856
0	C	0.0656363	0.554206	0.840692
0	C	0.596519	0.417646	0.293163
0	C	0.0414307	0.0017546	0.400144
0	C	0.631949	0.946852	0.85783
0	C	0.129601	0.515847	0.853867
0	C	0.523724	0.453584	0.309641
0	C	0.965352	0.0059776	0.352732
0	C	0.702291	0.947436	0.808747
0	C	0.20773	0.512729	0.900919
0	C	0.445796	0.452467	0.356933
0	C	0.625262	0.032986	0.305652
0	C	0.0384324	0.926126	0.762496
0	C	0.541861	0.528535	0.945406
0	C	0.116321	0.428753	0.411531
0	C	0.602749	0.109582	0.332737
0	C	0.0063457	0.849521	0.791474
0	C	0.503716	0.605375	0.918481
0	C	0.0826998	0.352838	0.38349
0	C	0.631696	0.0674797	0.347185
0	C	0.0235932	0.892447	0.804738
0	C	0.525365	0.562851	0.904153
0	C	0.121243	0.394356	0.369911
0	C	0.607137	0.141374	0.372119
0	C	0.987685	0.819658	0.832554
0	C	0.484096	0.635771	0.87809
0	C	0.0749776	0.321927	0.343053
0	C	0.639212	0.130993	0.425628
0	C	0.989959	0.832448	0.886684
0	C	0.488404	0.623886	0.823648
0	C	0.106278	0.332439	0.289534
0	C	0.665714	0.0887805	0.440013
0	C	0.0121443	0.875127	0.899906
0	C	0.515151	0.58166	0.80943
0	C	0.145316	0.373943	0.27629
0	C	0.662021	0.0568138	0.400778
0	C	0.028687	0.905279	0.858951
0	C	0.534022	0.551005	0.849618
0	C	0.153047	0.4051	0.316473
0	H	0.158696	0.263438	0.154048
0	H	0.49291	0.704441	0.614802
0	H	0.995527	0.746837	0.0981475
0	H	0.668337	0.205986	0.566607
0	H	0.366264	0.231919	0.126644
0	H	0.295155	0.737686	0.583223
0	H	0.799366	0.712992	0.129621
0	H	0.871193	0.238556	0.592653
0	H	0.335247	0.135409	0.12605
0	H	0.337613	0.833374	0.578212
0	H	0.847136	0.617432	0.135123
0	H	0.838548	0.335095	0.593067
0	H	0.652619	0.0915479	0.179582
0	H	0.0380635	0.885261	0.632159
0	H	0.54486	0.564846	0.0832673
0	H	0.151175	0.379813	0.539838
0	H	0.724975	0.0857316	0.0889773
0	H	0.95801	0.88844	0.542078
0	H	0.470017	0.561481	0.173662
0	H	0.227568	0.385068	0.630338
0	H	0.757052	0.140537	0.0857998
0	H	0.91462	0.834571	0.543616
0	H	0.425881	0.615293	0.172988
0	H	0.25877	0.330206	0.632956
0	H	0.472674	0.0965077	0.072587
0	H	0.205979	0.871881	0.523944
0	H	0.71897	0.578733	0.190596
0	H	0.975194	0.374441	0.646844
0	H	0.287258	0.112055	0.0151068
0	H	0.389048	0.849757	0.459275
0	H	0.899099	0.601578	0.254518
0	H	0.783666	0.35948	0.704124
0	H	0.932193	0.134995	0.139497
0	H	0.739529	0.832335	0.587707
0	H	0.249481	0.619975	0.125518
0	H	0.433287	0.334035	0.579629
0	H	0.192324	0.150817	0.205859
0	H	0.486741	0.818039	0.658325
0	H	0.994969	0.633035	0.0559197
0	H	0.692197	0.317714	0.512316
0	H	0.0356464	0.178462	0.207692
0	H	0.641653	0.7895	0.657544
0	H	0.148115	0.662435	0.0561835
0	H	0.535859	0.289719	0.512049
0	H	0.120197	0.263767	0.0569188
0	H	0.53129	0.699462	0.514855
0	H	0.0333956	0.752357	0.197982
0	H	0.628406	0.206365	0.663398
0	H	0.169174	0.227425	0.00640451
0	H	0.477556	0.733971	0.463236
0	H	0.982936	0.717781	0.250237
0	H	0.675266	0.24331	0.713365
0	H	0.283379	0.24111	0.0588214
0	H	0.369697	0.723429	0.5185
0	H	0.873536	0.727402	0.195082
0	H	0.790184	0.229953	0.660992
0	H	0.927425	0.207412	0.0387853
0	H	0.726474	0.756372	0.488977
0	H	0.232716	0.696218	0.224315
0	H	0.432846	0.262616	0.68157
0	H	0.930148	0.230336	0.104848
0	H	0.729405	0.731031	0.553609
0	H	0.232806	0.722207	0.160092
0	H	0.434858	0.238487	0.616192
0	H	0.902219	0.175331	0.0960746
0	H	0.759839	0.786058	0.547795
0	H	0.267203	0.667412	0.164796
0	H	0.405526	0.29364	0.623434
0	H	0.0507086	0.0551592	0.0784879
0	H	0.628597	0.906931	0.520588
0	H	0.143716	0.545114	0.192644
0	H	0.552062	0.415063	0.637223
0	H	0.209622	0.0583906	0.11311
0	H	0.471895	0.90852	0.556968
0	H	0.984506	0.543319	0.158178
0	H	0.712575	0.411226	0.603942
0	H	0.199029	0.0696145	0.0426206
0	H	0.474439	0.893509	0.487637
0	H	0.991908	0.558205	0.227504
0	H	0.698484	0.401037	0.674632
0	H	0.663319	0.200149	0.102414
0	H	0.999086	0.773036	0.561829
0	H	0.508907	0.677386	0.152017
0	H	0.164238	0.269825	0.618314
0	H	0.535175	0.234444	0.0767124
0	H	0.119811	0.735708	0.537208
0	H	0.628397	0.714672	0.17774
0	H	0.0357503	0.236373	0.645636
0	H	0.635604	0.204195	0.0319624
0	H	0.0216016	0.76574	0.491514
0	H	0.5294	0.683988	0.222475
0	H	0.13739	0.267368	0.689
0	H	0.617167	0.211484	0.183261
0	H	0.0415171	0.764989	0.642006
0	H	0.547237	0.685105	0.0725501
0	H	0.126962	0.259293	0.540046
0	H	0.605072	0.180111	0.244768
0	H	0.0682672	0.797585	0.702096
0	H	0.571439	0.652156	0.0126237
0	H	0.111746	0.288001	0.476514
0	H	0.401919	0.307336	0.300213
0	H	0.218865	0.666128	0.756058
0	H	0.723178	0.782983	0.957015
0	H	0.959188	0.167341	0.422124
0	H	0.418258	0.300714	0.400344
0	H	0.171984	0.676157	0.854325
0	H	0.684454	0.773505	0.857995
0	H	0.957137	0.170376	0.321562
0	H	0.370306	0.231131	0.444848
0	H	0.206468	0.747181	0.896897
0	H	0.722835	0.702743	0.815365
0	H	0.847794	0.231587	0.274446
0	H	0.306777	0.168049	0.389435
0	H	0.286127	0.808484	0.841556
0	H	0.798889	0.641248	0.871074
0	H	0.73927	0.289626	0.327859
0	H	0.298108	0.17403	0.288664
0	H	0.328698	0.79889	0.742709
0	H	0.834381	0.650412	0.97052
0	H	0.74729	0.287654	0.428782
0	H	0.322949	0.099306	0.293728
0	H	0.406295	0.870611	0.736664
0	H	0.917857	0.578927	0.978245
0	H	0.824665	0.364522	0.422615
0	H	0.349028	0.0451164	0.276611
0	H	0.315686	0.91949	0.734841
0	H	0.815704	0.53249	0.978023
0	H	0.821969	0.419565	0.43865
0	H	0.19846	0.0721885	0.254225
0	H	0.473413	0.914598	0.699571
0	H	0.973557	0.532633	0.0137261
0	H	0.688128	0.38538	0.462125
0	H	0.692634	0.0277736	0.927115
0	H	0.900747	0.926177	0.399221
0	H	0.392463	0.531377	0.323169
0	H	0.19473	0.443962	0.796645
0	H	0.767567	0.0586647	0.87504
0	H	0.872958	0.902855	0.33491
0	H	0.36807	0.561433	0.382743
0	H	0.264315	0.411878	0.848726
0	H	0.940191	0.0407199	0.942319
0	H	0.680779	0.886665	0.395356
0	H	0.194622	0.577165	0.310543
0	H	0.443723	0.428265	0.784098
0	H	0.84765	0.0635933	0.995595
0	H	0.786724	0.862795	0.444213
0	H	0.320787	0.597769	0.267279
0	H	0.351998	0.40803	0.728921
0	H	0.916133	0.0961519	0.943649
0	H	0.765095	0.838501	0.379959
0	H	0.284812	0.623674	0.329486
0	H	0.411765	0.373358	0.780197
0	H	0.455325	0.000448689	0.822272
0	H	0.229211	0.986625	0.305898
0	H	0.792269	0.472633	0.416725
0	H	0.936391	0.466405	0.904446
0	H	0.298933	0.0306297	0.81714
0	H	0.383908	0.955352	0.300994
0	H	0.915903	0.514512	0.428085
0	H	0.784833	0.433692	0.903324
0	H	0.545434	0.0341979	0.7379
0	H	0.151442	0.957303	0.215236
0	H	0.664799	0.500231	0.502438
0	H	0.0244079	0.42585	0.985434
0	H	0.405642	0.0690158	0.734378
0	H	0.298914	0.92543	0.211315
0	H	0.805546	0.533176	0.515935
0	H	0.882138	0.39161	0.983604
0	H	0.380202	0.0139524	0.723634
0	H	0.314758	0.981239	0.207363
0	H	0.826836	0.477331	0.516693
0	H	0.858919	0.445926	0.000110764
0	H	0.574102	0.176786	0.888062
0	H	0.172396	0.803293	0.333352
0	H	0.699876	0.64834	0.376535
0	H	0.075518	0.294312	0.827963
0	H	0.738711	0.160054	0.906525
0	H	0.997126	0.80168	0.347232
0	H	0.522014	0.652449	0.368566
0	H	0.241492	0.311118	0.811419
0	H	0.760468	0.181804	0.815656
0	H	0.0416802	0.793219	0.249876
0	H	0.582091	0.663685	0.463073
0	H	0.264643	0.288866	0.901416
0	H	0.613427	0.155019	0.793086
0	H	0.117219	0.843983	0.244477
0	H	0.663951	0.614016	0.469061
0	H	0.110268	0.311758	0.923445
0	H	0.762841	0.125981	0.810545
0	H	0.941537	0.839259	0.260907
0	H	0.484565	0.616487	0.459235
0	H	0.255168	0.344199	0.9097
0	H	0.125222	0.183438	0.881006
0	H	0.530319	0.755848	0.343252
0	H	0.0647448	0.693788	0.368675
0	H	0.622071	0.284973	0.835137
0	H	0.0102472	0.140135	0.872662
0	H	0.634232	0.79762	0.318028
0	H	0.137627	0.648655	0.401045
0	H	0.517255	0.329792	0.849842
0	H	0.176447	0.137267	0.844637
0	H	0.462743	0.793067	0.296042
0	H	0.96594	0.663023	0.414364
0	H	0.688138	0.328066	0.873586
0	H	0.0620572	0.0238931	0.240228
0	H	0.607997	0.939664	0.69301
0	H	0.118057	0.513182	0.0191056
0	H	0.551994	0.444454	0.474455
0	H	0.844884	0.0855626	0.269759
0	H	0.822154	0.875499	0.714368
0	H	0.332868	0.578555	0.000838005
0	H	0.338502	0.379265	0.450869
0	H	0.629531	0.94428	0.277273
0	H	0.0406424	0.0152079	0.742002
0	H	0.548519	0.438821	0.965719
0	H	0.10991	0.517389	0.436905
0	H	0.808349	0.939087	0.288369
0	H	0.861598	0.0179412	0.754006
0	H	0.369928	0.437675	0.953044
0	H	0.288584	0.526841	0.42932
0	H	0.736357	0.921687	0.226871
0	H	0.93094	0.0414697	0.695406
0	H	0.435502	0.412642	0.0112728
0	H	0.205496	0.541832	0.489627
0	H	0.551484	0.00465062	0.197565
0	H	0.122166	0.962663	0.655793
0	H	0.636169	0.487361	0.0502862
0	H	0.0384021	0.461624	0.519528
0	H	0.65918	0.973544	0.155695
0	H	0.0123517	0.995582	0.617111
0	H	0.519619	0.459537	0.0925491
0	H	0.158379	0.486218	0.56333
0	H	0.690349	0.0282205	0.162416
0	H	0.986366	0.940213	0.61765
0	H	0.509619	0.515284	0.0877795
0	H	0.172544	0.431664	0.548979
0	H	0.995117	0.113395	0.334881
0	H	0.684205	0.8417	0.778045
0	H	0.17032	0.614346	0.947462
0	H	0.506969	0.349637	0.394476
0	H	0.133404	0.105228	0.418453
0	H	0.556312	0.841199	0.864342
0	H	0.0294632	0.619323	0.864778
0	H	0.648213	0.352472	0.311285
0	H	0.161866	0.0339119	0.460576
0	H	0.523864	0.908395	0.916096
0	H	0.00476772	0.556506	0.803987
0	H	0.657869	0.418737	0.256493
0	H	0.0546391	0.970347	0.418483
0	H	0.618568	0.97636	0.880703
0	H	0.119073	0.488029	0.827313
0	H	0.52885	0.482783	0.285763
0	H	0.919717	0.977939	0.333637
0	H	0.742655	0.977428	0.793106
0	H	0.256735	0.4826	0.91112
0	H	0.389699	0.480808	0.369747
0	H	0.576391	0.117505	0.291059
0	H	0.00821393	0.839369	0.749208
0	H	0.50277	0.614809	0.96103
0	H	0.0576693	0.344642	0.425277
0	H	0.585931	0.174341	0.361143
0	H	0.971388	0.786307	0.822421
0	H	0.465442	0.668844	0.888978
0	H	0.0440885	0.289575	0.353241
0	H	0.644695	0.155957	0.456212
0	H	0.974299	0.809095	0.918644
0	H	0.470705	0.647562	0.792209
0	H	0.101075	0.308169	0.258011
0	H	0.689941	0.0808176	0.4818
0	H	0.0156269	0.884963	0.942128
0	H	0.52059	0.572574	0.766964
0	H	0.169561	0.38206	0.234567
0	H	0.682841	0.0238553	0.411764
0	H	0.0453565	0.938653	0.869109
0	H	0.555452	0.517995	0.838647
0	H	0.18334	0.437539	0.306319
