#******************************************
#
# CIF file created by Zeo++
# Zeo++ is an open source package to
# analyze microporous materials
#
#*******************************************

_cell_length_a		7.4184(0)
_cell_length_b		13.7452(0)
_cell_length_c		27.9143(0)
_cell_angle_alpha		90(0)
_cell_angle_beta		90(0)
_cell_angle_gamma		90(0)

_symmetry_space_group_name_H-M		'P1'
_symmetry_Int_Tables_number		1
_symmetry_cell_setting		Monoclinic

loop_
_symmetry_equiv_pos_as_xyz
'+x,+y,+z'

loop_
_atom_site_label
_atom_site_type_symbol
_atom_site_fract_x
_atom_site_fract_y
_atom_site_fract_z
0	O	0.0780558	0.715144	0.834645
0	O	0.494833	0.301798	0.335563
0	O	0.997066	0.214808	0.660248
0	O	0.578148	0.798155	0.162405
0	H	0.190312	0.675793	0.830806
0	H	0.38217	0.34084	0.331603
0	H	0.883714	0.176246	0.664014
0	H	0.690368	0.837567	0.166324
0	O	0.898391	0.539185	0.791754
0	O	0.675163	0.477988	0.292658
0	O	0.178488	0.0411663	0.703798
0	O	0.398042	0.97514	0.204902
0	O	0.757278	0.412338	0.756705
0	O	0.819943	0.605271	0.258925
0	O	0.316779	0.91348	0.739008
0	O	0.257674	0.102591	0.239717
0	O	0.428116	0.654309	0.81604
0	O	0.144537	0.363913	0.318421
0	O	0.646002	0.157368	0.679139
0	O	0.928109	0.860809	0.180104
0	O	0.57768	0.733427	0.90189
0	O	0.98999	0.284755	0.404105
0	O	0.496121	0.235584	0.593229
0	O	0.0806325	0.782283	0.0941979
0	H	0.542535	0.666315	0.893807
0	H	0.0203934	0.352326	0.395638
0	H	0.534659	0.168864	0.601008
0	H	0.0530592	0.849867	0.103308
0	O	0.49996	0.0570705	0.0157068
0	O	0.076461	0.954079	0.515372
0	O	0.573169	0.562216	0.480333
0	O	0.999812	0.459555	0.98028
0	H	0.555664	0.0881766	0.0447014
0	H	0.0219747	0.919682	0.543712
0	H	0.518338	0.595328	0.451741
0	H	0.0550524	0.427991	0.95132
0	O	0.984451	0.178263	0.0929337
0	O	0.586389	0.839612	0.594727
0	O	0.084321	0.680555	0.402155
0	O	0.486186	0.339339	0.902489
0	C	0.0267495	0.755683	0.789371
0	C	0.547733	0.261277	0.290432
0	C	0.0465835	0.256496	0.705433
0	C	0.525352	0.758066	0.207652
0	H	0.133253	0.809383	0.779126
0	H	0.441913	0.207379	0.279959
0	H	0.938783	0.309721	0.715313
0	H	0.631141	0.704198	0.218157
0	C	0.0193573	0.674473	0.750705
0	C	0.555842	0.342385	0.251676
0	C	0.0547807	0.175939	0.744423
0	C	0.517792	0.839532	0.246201
0	H	0.0252045	0.709075	0.714873
0	H	0.550837	0.307545	0.215886
0	H	0.0476551	0.21104	0.780121
0	H	0.522684	0.804983	0.282078
0	H	0.145269	0.630901	0.754438
0	H	0.429582	0.385762	0.255121
0	H	0.929743	0.131612	0.740684
0	H	0.644306	0.882664	0.242638
0	C	0.858606	0.603616	0.750981
0	C	0.716405	0.413475	0.252102
0	C	0.216714	0.105872	0.744519
0	C	0.357576	0.910773	0.245677
0	H	0.856824	0.557475	0.718206
0	H	0.718892	0.459405	0.219262
0	H	0.218889	0.0599772	0.777394
0	H	0.35556	0.957053	0.278426
0	C	0.676726	0.656678	0.758303
0	C	0.898214	0.360537	0.25993
0	C	0.397889	0.159548	0.737046
0	C	0.175592	0.857786	0.238213
0	C	0.70327	0.725985	0.800991
0	C	0.870382	0.29167	0.302754
0	C	0.370475	0.228323	0.69417
0	C	0.202667	0.78864	0.195476
0	H	0.758679	0.677422	0.831085
0	H	0.813219	0.340481	0.332513
0	H	0.315897	0.179186	0.664191
0	H	0.259559	0.837217	0.165601
0	C	0.510971	0.751477	0.815942
0	C	0.0621633	0.266667	0.318385
0	C	0.562438	0.254368	0.679141
0	C	0.0106943	0.76362	0.180054
0	H	0.434541	0.796146	0.789549
0	H	0.139826	0.221794	0.292326
0	H	0.638506	0.299393	0.705469
0	H	0.933466	0.718619	0.206162
0	C	0.506568	0.798023	0.866294
0	C	0.0647685	0.220583	0.368845
0	C	0.566378	0.300669	0.628727
0	C	0.00750549	0.717798	0.129549
0	H	0.367232	0.817364	0.877642
0	H	0.203698	0.202238	0.380845
0	H	0.705432	0.320486	0.617404
0	H	0.868432	0.699252	0.117712
0	C	0.634455	0.887579	0.863791
0	C	0.938987	0.130172	0.365795
0	C	0.437374	0.389734	0.631079
0	C	0.133759	0.627527	0.132321
0	C	0.829435	0.852972	0.849262
0	C	0.743955	0.164226	0.3509
0	C	0.242731	0.354548	0.645603
0	C	0.32876	0.661196	0.147401
0	H	0.860754	0.790103	0.874612
0	H	0.711352	0.227044	0.376167
0	H	0.212334	0.291444	0.620322
0	H	0.361678	0.724068	0.122172
0	C	0.842661	0.808542	0.7983
0	C	0.731822	0.208686	0.299873
0	C	0.229805	0.310265	0.696596
0	C	0.341063	0.705599	0.198383
0	C	0.955407	0.935898	0.865578
0	C	0.618429	0.0810378	0.367194
0	C	0.115803	0.436904	0.629068
0	C	0.454191	0.577985	0.131078
0	H	0.0907405	0.907032	0.874189
0	H	0.482223	0.109235	0.375297
0	H	0.980537	0.407706	0.620661
0	H	0.590808	0.606055	0.123351
0	H	0.972586	0.992477	0.838008
0	H	0.603287	0.0240268	0.339743
0	H	0.0984432	0.493895	0.656427
0	H	0.468096	0.520467	0.158313
0	C	0.85857	0.974834	0.909296
0	C	0.714292	0.0427714	0.411229
0	C	0.212158	0.475538	0.58521
0	C	0.359043	0.540906	0.0866951
0	C	0.925736	0.0321247	0.946283
0	C	0.6469	0.986061	0.448431
0	C	0.144628	0.531944	0.547965
0	C	0.426861	0.485468	0.0491087
0	C	0.676028	0.942481	0.909857
0	C	0.897088	0.0746685	0.411646
0	C	0.395297	0.44411	0.584923
0	C	0.176421	0.573225	0.0861946
0	C	0.558565	0.968707	0.945929
0	C	0.015546	0.046849	0.447198
0	C	0.513308	0.471005	0.549113
0	C	0.0589048	0.547791	0.0500264
0	H	0.420917	0.941679	0.947849
0	H	0.153718	0.0730468	0.44886
0	H	0.651441	0.44476	0.547448
0	H	0.921197	0.574767	0.0482725
0	C	0.626613	0.0295684	0.982369
0	C	0.948046	0.985029	0.483305
0	C	0.445244	0.532031	0.51274
0	C	0.127015	0.487611	0.0133448
0	C	0.806029	0.0619967	0.98339
0	C	0.767302	0.954891	0.485133
0	C	0.264789	0.562511	0.511094
0	C	0.306981	0.456135	0.0119227
0	C	0.117848	0.0636939	0.947716
0	C	0.454293	0.955723	0.450477
0	C	0.952199	0.562647	0.546074
0	C	0.619295	0.454708	0.047033
0	H	0.194749	0.0411678	0.916073
0	H	0.374566	0.982096	0.420066
0	H	0.872478	0.535724	0.576375
0	H	0.701439	0.485411	0.0759809
0	H	0.187641	0.0323594	0.979216
0	H	0.388095	0.98399	0.483203
0	H	0.885755	0.535127	0.513229
0	H	0.683245	0.478247	0.01312
0	H	0.129985	0.143053	0.951402
0	H	0.440534	0.876156	0.452188
0	H	0.939142	0.642251	0.544802
0	H	0.632474	0.375094	0.0480778
0	C	0.815745	0.882444	0.758064
0	C	0.760837	0.134716	0.259777
0	C	0.255294	0.384493	0.736745
0	C	0.311562	0.631697	0.238458
0	H	0.850512	0.85221	0.722818
0	H	0.725564	0.164215	0.224434
0	H	0.219876	0.354573	0.772002
0	H	0.346107	0.661349	0.273823
0	H	0.897911	0.947624	0.763749
0	H	0.680379	0.068989	0.265538
0	H	0.172875	0.449478	0.730837
0	H	0.392198	0.565976	0.23286
0	H	0.67353	0.905337	0.755784
0	H	0.903735	0.112774	0.257609
0	H	0.397335	0.407581	0.739217
0	H	0.168635	0.609868	0.240422
0	C	0.869102	0.124645	0.0220891
0	C	0.703886	0.89285	0.524032
0	C	0.201208	0.625094	0.47246
0	C	0.369821	0.393942	0.973038
0	C	0.868882	0.230209	0.0219383
0	C	0.707392	0.787317	0.52447
0	C	0.20081	0.730659	0.473337
0	C	0.36576	0.288372	0.973053
0	H	0.821563	0.275085	0.993007
0	H	0.756789	0.742217	0.495834
0	H	0.248268	0.774675	0.502581
0	H	0.316121	0.244115	0.00189438
0	C	0.939716	0.259238	0.0648347
0	C	0.635515	0.758512	0.567261
0	C	0.129168	0.760802	0.430761
0	C	0.437079	0.258741	0.930346
0	H	0.969974	0.327159	0.0815752
0	H	0.606924	0.690678	0.584284
0	H	0.0983552	0.829198	0.414487
0	H	0.465378	0.190572	0.913567
0	C	0.940191	0.0964635	0.0653956
0	C	0.629315	0.921209	0.566906
0	C	0.129528	0.597998	0.429069
0	C	0.443876	0.421522	0.930002
0	H	0.970783	0.0290236	0.082502
0	H	0.595394	0.988639	0.583547
0	H	0.0991207	0.531063	0.411489
0	H	0.477907	0.488615	0.91301
0	C	0.546074	0.964108	0.831137
0	C	0.0300869	0.054327	0.333263
0	C	0.524639	0.466794	0.663655
0	C	0.0417872	0.55129	0.16442
0	H	0.417661	0.98881	0.84623
0	H	0.159235	0.0306918	0.348391
0	H	0.652346	0.492465	0.648476
0	H	0.91221	0.528743	0.149145
0	H	0.516856	0.935586	0.794934
0	H	0.0586816	0.0828874	0.297021
0	H	0.554666	0.438393	0.69983
0	H	0.0140034	0.579258	0.200826
0	H	0.633825	0.0275655	0.826653
0	H	0.944483	0.990012	0.328808
0	H	0.435593	0.529743	0.668166
0	H	0.12618	0.486355	0.168482
0	C	0.512792	0.597054	0.777522
0	C	0.0619772	0.420207	0.279244
0	C	0.562467	0.100293	0.717902
0	C	0.0117559	0.917474	0.218986
0	H	0.405765	0.585546	0.750826
0	H	0.170224	0.43056	0.25276
0	H	0.670004	0.0894924	0.744549
0	H	0.904119	0.928426	0.245582
0	H	0.549962	0.528052	0.794785
0	H	0.0251166	0.489848	0.2959
0	H	0.525987	0.0309583	0.700901
0	H	0.0488352	0.986818	0.202068
0	C	0.626032	0.704364	0.710658
0	C	0.949787	0.312623	0.212381
0	C	0.447924	0.207611	0.784646
0	C	0.124463	0.810121	0.28585
0	H	0.502822	0.749134	0.714008
0	H	0.070982	0.266443	0.216146
0	H	0.569911	0.253387	0.781096
0	H	0.00246793	0.764474	0.282271
0	H	0.602068	0.65039	0.682467
0	H	0.977362	0.366649	0.184448
0	H	0.473683	0.153742	0.812749
0	H	0.0984668	0.864234	0.31383
0	H	0.731926	0.754067	0.697837
0	H	0.842672	0.264221	0.199082
0	H	0.340981	0.256499	0.797547
0	H	0.230993	0.761206	0.298979
0	C	0.848714	0.443765	0.789714
0	C	0.725976	0.57327	0.291265
0	C	0.227609	0.945687	0.705787
0	C	0.348578	0.070648	0.206735
0	C	0.917642	0.38822	0.831507
0	C	0.654039	0.627662	0.333074
0	C	0.159929	0.891482	0.663388
0	C	0.416783	0.125851	0.164727
0	C	0.844494	0.300157	0.83978
0	C	0.727302	0.715132	0.3427
0	C	0.227808	0.802093	0.655467
0	C	0.343244	0.21374	0.15618
0	H	0.736658	0.272816	0.816001
0	H	0.837755	0.742973	0.319981
0	H	0.331847	0.772686	0.679872
0	H	0.23565	0.241551	0.179861
0	C	0.894655	0.234778	0.879722
0	C	0.673444	0.779083	0.382903
0	C	0.177194	0.737492	0.615187
0	C	0.393227	0.278293	0.115843
0	H	0.037756	0.239756	0.889758
0	H	0.529778	0.773359	0.392129
0	H	0.0335835	0.742121	0.605618
0	H	0.536368	0.273192	0.10586
0	H	0.866205	0.157721	0.871968
0	H	0.701677	0.856452	0.375849
0	H	0.206647	0.660336	0.622428
0	H	0.364428	0.355471	0.123121
0	H	0.816239	0.252935	0.912249
0	H	0.749734	0.76026	0.415666
0	H	0.254375	0.756551	0.582588
0	H	0.315003	0.259135	0.0834271
0	C	0.0613002	0.433959	0.861216
0	C	0.507326	0.581009	0.361364
0	C	0.0217695	0.94131	0.633461
0	C	0.56047	0.0802597	0.134981
0	H	0.188188	0.392598	0.859769
0	H	0.379656	0.62126	0.358444
0	H	0.0248785	0.916946	0.595804
0	H	0.686451	0.122442	0.136056
0	H	0.0193268	0.439004	0.899138
0	H	0.543603	0.576547	0.399722
0	H	0.0422412	0.0212513	0.63297
0	H	0.517831	0.0742963	0.0971281
0	H	0.091519	0.509416	0.84998
0	H	0.480707	0.505247	0.350018
0	H	0.884654	0.928593	0.647106
0	H	0.592397	0.00524438	0.146539
