#******************************************
#
# CIF file created by Zeo++
# Zeo++ is an open source package to
# analyze microporous materials
#
#*******************************************

_cell_length_a		8.19719(0)
_cell_length_b		8.78287(0)
_cell_length_c		16.8334(0)
_cell_angle_alpha		100.923(0)
_cell_angle_beta		104.606(0)
_cell_angle_gamma		94.422(0)

_symmetry_space_group_name_H-M		'P1'
_symmetry_Int_Tables_number		1
_symmetry_cell_setting		Triclinic

loop_
_symmetry_equiv_pos_as_xyz
'+x,+y,+z'

loop_
_atom_site_label
_atom_site_type_symbol
_atom_site_fract_x
_atom_site_fract_y
_atom_site_fract_z
0	C	0.263269	0.354362	0.909319
0	C	0.702468	0.630686	0.0836907
0	C	0.106225	0.414693	0.914015
0	C	0.859553	0.570403	0.0790225
0	H	0.0559822	0.403289	0.967143
0	H	0.909829	0.581879	0.0259114
0	C	0.0219539	0.486316	0.853783
0	C	0.943731	0.498666	0.139221
0	H	0.904257	0.534067	0.857704
0	H	0.0613925	0.450851	0.135301
0	C	0.0864202	0.501262	0.78343
0	C	0.87919	0.483675	0.209554
0	H	0.0153323	0.560116	0.736705
0	H	0.950187	0.42466	0.256227
0	C	0.232563	0.443444	0.775824
0	C	0.733102	0.541584	0.217169
0	H	0.281379	0.453803	0.722081
0	H	0.684264	0.531214	0.270923
0	C	0.327755	0.368616	0.838784
0	C	0.637976	0.616465	0.154231
0	C	0.480645	0.309875	0.833258
0	C	0.485103	0.675189	0.15976
0	C	0.574685	0.242182	0.897209
0	C	0.391015	0.742807	0.0957784
0	C	0.735606	0.188222	0.894528
0	C	0.230099	0.796768	0.0984683
0	H	0.784197	0.199046	0.840901
0	H	0.181536	0.786093	0.152121
0	C	0.826345	0.126247	0.957498
0	C	0.139257	0.858509	0.0354266
0	H	0.948551	0.0867071	0.955612
0	H	0.016987	0.898	0.0373023
0	C	0.763254	0.11294	0.0283383
0	C	0.202213	0.871613	0.964523
0	H	0.83988	0.0637148	0.077786
0	H	0.125471	0.92064	0.915018
0	C	0.611482	0.161732	0.0333027
0	C	0.353989	0.822826	0.959563
0	H	0.564007	0.151825	0.0874104
0	H	0.401348	0.832554	0.905398
0	C	0.511711	0.22844	0.967999
0	C	0.453866	0.756334	0.0249305
0	C	0.356422	0.283416	0.971113
0	C	0.609166	0.701345	0.0218117
0	C	0.547728	0.316991	0.760715
0	C	0.41791	0.668064	0.232262
0	C	0.561221	0.182617	0.698448
0	C	0.404214	0.8024	0.2945
0	H	0.514201	0.0627564	0.695084
0	H	0.451255	0.922276	0.297915
0	C	0.642626	0.242722	0.647271
0	C	0.322557	0.742245	0.345566
0	C	0.707838	0.172768	0.576069
0	C	0.257201	0.812177	0.416726
0	H	0.843915	0.216726	0.585935
0	H	0.121118	0.768314	0.406819
0	H	0.689746	0.0427745	0.563896
0	H	0.275386	0.942183	0.428967
0	C	0.647108	0.181023	0.428605
0	C	0.318105	0.803835	0.564223
0	C	0.769381	0.084426	0.415365
0	C	0.195988	0.900585	0.577545
0	H	0.844355	0.0326637	0.463615
0	H	0.120988	0.952354	0.529317
0	C	0.793888	0.0541461	0.334233
0	C	0.171609	0.930867	0.658696
0	C	0.700882	0.116388	0.268987
0	C	0.264658	0.868542	0.723904
0	H	0.722037	0.0932149	0.207067
0	H	0.24357	0.891738	0.785847
0	C	0.579222	0.212786	0.285411
0	C	0.386098	0.771937	0.707391
0	H	0.506217	0.26296	0.234998
0	H	0.459069	0.721612	0.757762
0	C	0.54995	0.245707	0.364274
0	C	0.415179	0.738958	0.628485
0	H	0.456596	0.321333	0.377731
0	H	0.508311	0.663132	0.614953
0	C	0.955473	0.915632	0.246827
0	C	0.0100737	0.0692997	0.74616
0	H	0.835748	0.877702	0.1954
0	H	0.12979	0.10729	0.797581
0	H	0.023847	0.812576	0.255466
0	H	0.941616	0.17227	0.737532
0	C	0.0592121	0.0437849	0.23383
0	C	0.906423	0.94108	0.759138
0	C	0.143587	0.153335	0.22375
0	C	0.822101	0.831428	0.769148
0	H	0.217018	0.248362	0.215803
0	H	0.748713	0.736329	0.777044
0	Cl	0.277589	0.264211	0.0551662
0	Cl	0.687718	0.72017	0.937635
0	N	0.616583	0.447838	0.74464
0	N	0.348998	0.537182	0.248278
0	O	0.676844	0.406786	0.674867
0	O	0.288426	0.578186	0.317957
0	O	0.605098	0.221968	0.503288
0	O	0.359804	0.76275	0.489469
0	O	0.915126	0.955549	0.327218
0	O	0.0503583	0.0294361	0.665752
