#******************************************
#
# CIF file created by Zeo++
# Zeo++ is an open source package to
# analyze microporous materials
#
#*******************************************

_cell_length_a		23.2447(0)
_cell_length_b		13.658(0)
_cell_length_c		15.4819(0)
_cell_angle_alpha		90(0)
_cell_angle_beta		90(0)
_cell_angle_gamma		90(0)

_symmetry_space_group_name_H-M		'P1'
_symmetry_Int_Tables_number		1
_symmetry_cell_setting		Monoclinic

loop_
_symmetry_equiv_pos_as_xyz
'+x,+y,+z'

loop_
_atom_site_label
_atom_site_type_symbol
_atom_site_fract_x
_atom_site_fract_y
_atom_site_fract_z
0	C	0.433669	0.665428	0.279948
0	C	0.0830082	0.885465	0.768869
0	C	0.593833	0.66297	0.186338
0	C	0.944375	0.8828	0.674445
0	C	0.592623	0.37653	0.674793
0	C	0.943286	0.156578	0.185647
0	C	0.432467	0.379107	0.76833
0	C	0.0818925	0.159181	0.280161
0	H	0.47327	0.627791	0.302302
0	H	0.0444246	0.924585	0.793179
0	H	0.554571	0.625238	0.162998
0	H	0.983261	0.921952	0.65101
0	H	0.552989	0.414133	0.652543
0	H	0.981842	0.117412	0.161279
0	H	0.471702	0.416906	0.791707
0	H	0.0429986	0.120102	0.303655
0	H	0.446243	0.739524	0.256784
0	H	0.0687646	0.81246	0.745528
0	H	0.580732	0.736816	0.209534
0	H	0.95819	0.809639	0.697848
0	H	0.580099	0.302374	0.6979
0	H	0.95759	0.229526	0.20906
0	H	0.44561	0.305241	0.745211
0	H	0.0681031	0.232353	0.256721
0	C	0.4027	0.605571	0.208507
0	C	0.113743	0.944869	0.697169
0	C	0.624302	0.603136	0.258213
0	C	0.913125	0.942417	0.745575
0	C	0.623642	0.436335	0.746235
0	C	0.912541	0.0971293	0.257297
0	C	0.402013	0.438833	0.696367
0	C	0.113095	0.0994777	0.209051
0	H	0.414816	0.526161	0.216721
0	H	0.102807	0.0246781	0.7065
0	H	0.612362	0.52374	0.250069
0	H	0.924262	0.0222065	0.736008
0	H	0.611536	0.515748	0.738054
0	H	0.923461	0.0173264	0.247917
0	H	0.413952	0.518232	0.704434
0	H	0.101944	0.0197223	0.218672
0	C	0.337432	0.614439	0.229729
0	C	0.179071	0.932132	0.715507
0	C	0.689688	0.61251	0.23849
0	C	0.847915	0.930299	0.725678
0	C	0.688877	0.427427	0.724898
0	C	0.84722	0.109899	0.238976
0	C	0.336627	0.429481	0.716073
0	C	0.178318	0.111586	0.228897
0	C	0.333666	0.672419	0.316445
0	C	0.183549	0.874239	0.802141
0	C	0.694126	0.670385	0.151816
0	C	0.844159	0.87216	0.639009
0	C	0.69258	0.369522	0.638146
0	C	0.842745	0.167829	0.152349
0	C	0.332152	0.371631	0.802732
0	C	0.182133	0.169809	0.315506
0	C	0.404196	0.750557	0.415841
0	C	0.112941	0.798745	0.903799
0	C	0.624304	0.750288	0.0522254
0	C	0.915455	0.798002	0.537777
0	C	0.62194	0.291735	0.538674
0	C	0.913344	0.243676	0.0509201
0	C	0.401927	0.291888	0.902469
0	C	0.110887	0.244034	0.416775
0	H	0.401809	0.824672	0.388056
0	H	0.117384	0.724314	0.877649
0	H	0.630258	0.823901	0.0796178
0	H	0.914422	0.723223	0.564087
0	H	0.624548	0.217519	0.566175
0	H	0.909046	0.318007	0.0773295
0	H	0.396165	0.218247	0.875041
0	H	0.112032	0.318798	0.390469
0	H	0.447721	0.740703	0.442701
0	H	0.0685277	0.807398	0.927881
0	H	0.579658	0.744962	0.0289176
0	H	0.958698	0.811044	0.510491
0	H	0.578295	0.301468	0.512209
0	H	0.9577	0.234943	0.0266311
0	H	0.446511	0.297436	0.926016
0	H	0.0676213	0.231141	0.444008
0	H	0.37326	0.746909	0.469835
0	H	0.14233	0.805437	0.959608
0	H	0.653063	0.743429	0.995757
0	H	0.884154	0.80156	0.484206
0	H	0.652664	0.295756	0.484446
0	H	0.883849	0.237334	0.995212
0	H	0.373015	0.298603	0.958772
0	H	0.142166	0.240374	0.470381
0	C	0.418739	0.638366	0.118226
0	C	0.0966751	0.914078	0.607087
0	C	0.607397	0.636686	0.347884
0	C	0.929395	0.91258	0.836293
0	C	0.607605	0.403476	0.836483
0	C	0.929611	0.127843	0.347406
0	C	0.418916	0.405208	0.60672
0	C	0.0968357	0.129296	0.11833
0	C	0.428522	0.737225	0.0985637
0	C	0.0875673	0.815127	0.586532
0	C	0.598617	0.736195	0.366603
0	C	0.93937	0.814358	0.857917
0	C	0.597833	0.304608	0.856105
0	C	0.938668	0.226772	0.368087
0	C	0.427762	0.305654	0.588107
0	C	0.0868602	0.227504	0.0966785
0	H	0.421499	0.79364	0.147742
0	H	0.0953086	0.758408	0.635138
0	H	0.607811	0.792071	0.317639
0	H	0.933508	0.757038	0.809368
0	H	0.604904	0.248201	0.806928
0	H	0.930892	0.283547	0.31955
0	H	0.418639	0.249831	0.637148
0	H	0.0927067	0.284838	0.145231
0	C	0.44646	0.765026	0.0157946
0	C	0.0693103	0.787879	0.504065
0	C	0.578923	0.76527	0.447917
0	C	0.956116	0.788474	0.941667
0	C	0.579811	0.276769	0.938825
0	C	0.956929	0.253914	0.450591
0	C	0.447386	0.276505	0.506807
0	C	0.0701471	0.253365	0.0129063
0	H	0.454498	0.842169	0.00213107
0	H	0.0617177	0.710998	0.489415
0	H	0.571517	0.842593	0.461117
0	H	0.964218	0.711792	0.956889
0	H	0.571758	0.199627	0.952442
0	H	0.964476	0.330777	0.46536
0	H	0.454812	0.199166	0.493683
0	H	0.0620495	0.330048	0.997654
0	C	0.452798	0.694961	0.95035
0	C	0.0619458	0.858808	0.439474
0	C	0.570033	0.695666	0.513221
0	C	0.961199	0.859963	0.0061693
0	C	0.57341	0.346822	0.00428479
0	C	0.964351	0.182857	0.515069
0	C	0.45618	0.34601	0.441365
0	C	0.0650838	0.181878	0.948433
0	C	0.442063	0.595992	0.96948
0	C	0.0721378	0.957644	0.45932
0	C	0.580527	0.59632	0.495652
0	C	0.950766	0.958377	0.984763
0	C	0.584168	0.44578	0.985219
0	C	0.954214	0.0840467	0.495094
0	C	0.445651	0.445359	0.458844
0	C	0.0755069	0.0834458	0.969874
0	H	0.445651	0.540645	0.918746
0	H	0.067598	0.0134191	0.40912
0	H	0.575507	0.541654	0.546681
0	H	0.953834	0.014907	0.0345933
0	H	0.580545	0.501118	0.0359695
0	H	0.958803	0.0281751	0.545206
0	H	0.450598	0.499937	0.407732
0	H	0.0724537	0.0269099	0.920037
0	C	0.425563	0.568083	0.0524718
0	C	0.0891052	0.985131	0.542285
0	C	0.598668	0.567182	0.413694
0	C	0.935325	0.984531	0.90085
0	C	0.600722	0.473734	0.902254
0	C	0.937242	0.0566814	0.412099
0	C	0.427545	0.474591	0.540813
0	C	0.0909238	0.0573188	0.053772
0	H	0.417022	0.490867	0.0652936
0	H	0.0973072	0.0625143	0.555234
0	H	0.606992	0.489705	0.40207
0	H	0.92696	0.0616145	0.88661
0	H	0.609266	0.550959	0.889466
0	H	0.929082	0.979309	0.399049
0	H	0.419168	0.552082	0.552345
0	H	0.0992898	0.980234	0.0680409
0	C	0.468031	0.724678	0.860108
0	C	0.0461505	0.829324	0.349652
0	C	0.552129	0.727031	0.601734
0	C	0.974576	0.831967	0.0974338
0	C	0.558056	0.31705	0.0944625
0	C	0.980132	0.212235	0.604929
0	C	0.473962	0.314535	0.352842
0	C	0.0517138	0.209805	0.857149
0	H	0.50406	0.682156	0.833953
0	H	0.0132119	0.876874	0.321312
0	H	0.515477	0.684813	0.626199
0	H	0.00687536	0.879937	0.126928
0	H	0.521769	0.359168	0.120345
0	H	0.0127813	0.16425	0.633457
0	H	0.51055	0.356785	0.328181
0	H	0.019353	0.16191	0.827728
0	H	0.480009	0.801976	0.854692
0	H	0.0297789	0.754384	0.345608
0	H	0.539847	0.804317	0.605053
0	H	0.9907	0.757013	0.103558
0	H	0.546379	0.239616	0.0999048
0	H	0.996848	0.286951	0.608981
0	H	0.486293	0.237272	0.34955
0	H	0.0356591	0.284798	0.850985
0	H	0.430895	0.712288	0.816763
0	H	0.0846181	0.833877	0.307781
0	H	0.588132	0.716192	0.6474
0	H	0.935195	0.837863	0.137265
0	H	0.595014	0.329931	0.138042
0	H	0.941552	0.208255	0.646613
0	H	0.437882	0.325227	0.307284
0	H	0.0910627	0.203744	0.817271
0	C	0.306507	0.516252	0.236803
0	C	0.210583	0.029657	0.720674
0	C	0.721071	0.514875	0.232605
0	C	0.816804	0.0283048	0.71907
0	C	0.719811	0.525599	0.717786
0	C	0.815687	0.0123952	0.233799
0	C	0.305247	0.527154	0.721934
0	C	0.209434	0.0135807	0.235472
0	C	0.210365	0.589751	0.198097
0	C	0.3054	0.954979	0.679
0	C	0.816414	0.589743	0.273439
0	C	0.721225	0.955002	0.758834
0	C	0.815979	0.452293	0.756512
0	C	0.720878	0.0871049	0.275496
0	C	0.209916	0.452293	0.681068
0	C	0.304999	0.0869816	0.195801
0	C	0.150666	0.58015	0.212448
0	C	0.365352	0.965234	0.689849
0	C	0.876394	0.580273	0.262264
0	C	0.661554	0.965419	0.744824
0	C	0.875685	0.462078	0.742308
0	C	0.660929	0.0769173	0.264625
0	C	0.149936	0.461808	0.692208
0	C	0.36466	0.076706	0.209941
0	H	0.13349	0.511333	0.237318
0	H	0.383008	0.0349003	0.712474
0	H	0.894152	0.511409	0.238586
0	H	0.644462	0.0350961	0.721079
0	H	0.892832	0.531004	0.717612
0	H	0.643263	0.00728473	0.241927
0	H	0.132179	0.530708	0.715818
0	H	0.381771	0.00711185	0.233846
0	C	0.114946	0.65946	0.194394
0	C	0.400723	0.88561	0.671093
0	C	0.911673	0.659696	0.281915
0	C	0.625764	0.885889	0.761823
0	C	0.911447	0.382787	0.760237
0	C	0.625568	0.156529	0.283452
0	C	0.114649	0.382376	0.672624
0	C	0.400423	0.156241	0.192802
0	H	0.0689524	0.65321	0.206406
0	H	0.446938	0.892067	0.680873
0	H	0.957878	0.653535	0.272013
0	H	0.579784	0.892498	0.749895
0	H	0.957449	0.389181	0.748341
0	H	0.579357	0.150126	0.273636
0	H	0.0684374	0.388566	0.682524
0	H	0.446405	0.149734	0.204825
0	C	0.137453	0.747026	0.161275
0	C	0.377554	0.797455	0.640252
0	C	0.888437	0.747149	0.314026
0	C	0.648229	0.79756	0.79357
0	C	0.88898	0.295039	0.793051
0	C	0.648761	0.24463	0.314419
0	C	0.137869	0.294874	0.640572
0	C	0.377932	0.244426	0.160794
0	H	0.109209	0.809389	0.149585
0	H	0.405624	0.734934	0.62813
0	H	0.916448	0.809605	0.3269
0	H	0.619949	0.735064	0.804326
0	H	0.917245	0.232687	0.804601
0	H	0.620696	0.307128	0.326606
0	H	0.109851	0.232427	0.627765
0	H	0.406188	0.306923	0.149916
0	C	0.196351	0.755544	0.144836
0	C	0.318327	0.788576	0.626596
0	C	0.829222	0.755348	0.328115
0	C	0.707137	0.788397	0.809719
0	C	0.830081	0.286358	0.809369
0	C	0.707986	0.25344	0.328098
0	C	0.197066	0.286647	0.626465
0	C	0.319026	0.253459	0.144586
0	H	0.213853	0.823913	0.119208
0	H	0.300389	0.720007	0.601882
0	H	0.811249	0.823381	0.353837
0	H	0.7246	0.719498	0.834328
0	H	0.812602	0.217846	0.83474
0	H	0.725948	0.321948	0.352917
0	H	0.215032	0.218603	0.600752
0	H	0.301539	0.322257	0.119807
0	C	0.232504	0.676613	0.163206
0	C	0.282492	0.867496	0.646202
0	C	0.793536	0.676547	0.307632
0	C	0.743411	0.867457	0.792353
0	C	0.793881	0.365262	0.791187
0	C	0.743803	0.174534	0.308388
0	C	0.232778	0.365448	0.646923
0	C	0.282784	0.174417	0.162081
0	C	0.288208	0.636973	0.379272
0	C	0.22913	0.910185	0.86467
0	C	0.739584	0.635658	0.0885177
0	C	0.798662	0.908836	0.576806
0	C	0.738029	0.404954	0.575297
0	C	0.797204	0.131784	0.089802
0	C	0.286667	0.406352	0.865977
0	C	0.227638	0.133184	0.377732
0	C	0.28633	0.553564	0.429726
0	C	0.229505	0.991922	0.917348
0	C	0.740047	0.555448	0.0341576
0	C	0.796921	0.993778	0.528195
0	C	0.739967	0.488426	0.524922
0	C	0.796941	0.0500951	0.0370616
0	C	0.28618	0.486546	0.920378
0	C	0.229432	0.0482275	0.426337
0	H	0.321978	0.501437	0.428808
0	H	0.193675	0.0436516	0.915528
0	H	0.704451	0.50346	0.0352356
0	H	0.832907	0.0454101	0.529799
0	H	0.704358	0.540629	0.525952
0	H	0.832846	0.998532	0.0387872
0	H	0.321799	0.538525	0.919371
0	H	0.193506	0.996496	0.424675
0	C	0.23772	0.537957	0.482216
0	C	0.276595	0.00624425	0.973305
0	C	0.786772	0.543359	0.977084
0	C	0.74791	0.0117556	0.477217
0	C	0.788544	0.503974	0.472367
0	C	0.74982	0.035598	0.981195
0	C	0.239416	0.498662	0.977361
0	C	0.278422	0.0304031	0.477428
0	H	0.235589	0.471255	0.520569
0	H	0.27652	0.0696327	0.0162375
0	H	0.786578	0.481473	0.932495
0	H	0.745638	0.0799923	0.440997
0	H	0.790721	0.570712	0.434065
0	H	0.749991	0.972296	0.938185
0	H	0.239581	0.560554	0.0219515
0	H	0.280716	0.962199	0.51366
0	C	0.192909	0.60561	0.485179
0	C	0.322376	0.94023	0.974469
0	C	0.832242	0.609984	0.976632
0	C	0.702786	0.944726	0.473407
0	C	0.833273	0.436158	0.469223
0	C	0.703889	0.101312	0.980244
0	C	0.193931	0.432057	0.977766
0	C	0.323473	0.0975714	0.48131
0	H	0.156054	0.59204	0.527442
0	H	0.358431	0.952725	0.018362
0	H	0.867954	0.59931	0.931638
0	H	0.665591	0.960159	0.432416
0	H	0.870094	0.449665	0.426888
0	H	0.667796	0.0886274	0.936466
0	H	0.15818	0.44276	0.0226805
0	H	0.360635	0.0822872	0.522411
0	C	0.194504	0.691815	0.435582
0	C	0.322791	0.856689	0.921354
0	C	0.832743	0.691978	0.0315632
0	C	0.704475	0.856857	0.520757
0	C	0.831611	0.349873	0.518703
0	C	0.703363	0.184796	0.0334178
0	C	0.193476	0.35006	0.922855
0	C	0.321772	0.185378	0.433888
0	H	0.159695	0.745311	0.438386
0	H	0.358462	0.805164	0.923158
0	H	0.868197	0.744094	0.0304507
0	H	0.669467	0.803953	0.517008
0	H	0.866325	0.296206	0.515702
0	H	0.667569	0.236077	0.0318007
0	H	0.158028	0.297939	0.92393
0	H	0.356729	0.238383	0.437648
0	C	0.242697	0.706656	0.384163
0	C	0.275218	0.841442	0.868629
0	C	0.785366	0.705022	0.08512
0	C	0.752855	0.839804	0.571229
0	C	0.783456	0.335131	0.57023
0	C	0.751008	0.200308	0.0859928
0	C	0.240877	0.337019	0.869328
0	C	0.273396	0.202315	0.383313
0	C	0.311153	0.778841	0.294607
0	C	0.206409	0.767921	0.780106
0	C	0.716851	0.776273	0.1752
0	C	0.821544	0.765278	0.659419
0	C	0.71505	0.263094	0.659834
0	C	0.819754	0.273981	0.174351
0	C	0.309448	0.265749	0.779374
0	C	0.204782	0.276483	0.295097
0	N	0.392331	0.66906	0.354431
0	N	0.12542	0.879164	0.841674
0	N	0.635749	0.6676	0.112687
0	N	0.902593	0.877325	0.600725
0	N	0.633904	0.373045	0.600237
0	N	0.900884	0.163041	0.112839
0	N	0.390505	0.374491	0.841925
0	N	0.123708	0.164666	0.353859
0	N	0.24761	0.510358	0.218669
0	N	0.268845	0.0351628	0.699982
0	N	0.779827	0.509962	0.251402
0	N	0.758418	0.0347536	0.739225
0	N	0.778682	0.531609	0.735982
0	N	0.757417	0.0069236	0.254456
0	N	0.246503	0.532077	0.703081
0	N	0.267833	0.00718648	0.215399
0	N	0.257047	0.790817	0.333896
0	N	0.261419	0.757982	0.817068
0	N	0.77155	0.787452	0.137881
0	N	0.767213	0.75461	0.620228
0	N	0.769076	0.250949	0.620441
0	N	0.764734	0.283804	0.137565
0	N	0.254715	0.254599	0.8166
0	N	0.259033	0.287418	0.33426
0	O	0.331205	0.440869	0.259095
0	O	0.185663	0.104985	0.743218
0	O	0.696503	0.439135	0.21055
0	O	0.841636	0.10344	0.695836
0	O	0.695065	0.601004	0.695372
0	O	0.840578	0.937044	0.211261
0	O	0.329817	0.602862	0.744027
0	O	0.184589	0.938397	0.258559
0	O	0.336075	0.843396	0.255668
0	O	0.181917	0.702229	0.74178
0	O	0.691683	0.840527	0.214316
0	O	0.845811	0.699277	0.697404
0	O	0.690077	0.198354	0.698817
0	O	0.84429	0.339879	0.212718
0	O	0.334615	0.201406	0.740281
0	O	0.180426	0.342672	0.25681
0	S	0.306287	0.684354	0.141273
0	S	0.208282	0.860305	0.626795
0	S	0.719435	0.68326	0.327548
0	S	0.817297	0.859299	0.813782
0	S	0.720114	0.357382	0.813191
0	S	0.818029	0.181681	0.327728
0	S	0.306882	0.358709	0.627009
0	S	0.208889	0.182439	0.140647
0	H	0.22749	0.844319	0.317924
0	H	0.290574	0.703706	0.800885
0	H	0.801133	0.840497	0.155083
0	H	0.738108	0.699929	0.634818
0	H	0.798585	0.197376	0.636321
0	H	0.735555	0.338043	0.153732
0	H	0.225142	0.201564	0.799356
0	H	0.288131	0.342081	0.319583
0	H	0.226177	0.44366	0.231763
0	H	0.290651	0.102328	0.710399
0	H	0.8015	0.44304	0.239607
0	H	0.736844	0.101646	0.727237
0	H	0.800079	0.598307	0.722764
0	H	0.735607	0.939767	0.244052
0	H	0.224818	0.598996	0.714848
0	H	0.2894	0.940287	0.227317
