#******************************************
#
# CIF file created by Zeo++
# Zeo++ is an open source package to
# analyze microporous materials
#
#*******************************************

_cell_length_a		20.5576(0)
_cell_length_b		20.4164(0)
_cell_length_c		6.51449(0)
_cell_angle_alpha		90(0)
_cell_angle_beta		90(0)
_cell_angle_gamma		118.944(0)

_symmetry_space_group_name_H-M		'P1'
_symmetry_Int_Tables_number		1
_symmetry_cell_setting		Monoclinic

loop_
_symmetry_equiv_pos_as_xyz
'+x,+y,+z'

loop_
_atom_site_label
_atom_site_type_symbol
_atom_site_fract_x
_atom_site_fract_y
_atom_site_fract_z
0	Si	0.966698	0.283078	0.204556
0	Si	0.713569	0.689428	0.535714
0	Si	0.308037	0.0421918	0.866917
0	Si	0.0275028	0.728436	0.70416
0	Si	0.27958	0.321558	0.0372947
0	Si	0.685756	0.969806	0.366083
0	C	0.90173	0.368042	0.981638
0	C	0.635797	0.540074	0.318024
0	C	0.454733	0.099741	0.644666
0	C	0.0925935	0.643519	0.481587
0	C	0.357764	0.470576	0.81833
0	C	0.539035	0.912106	0.144592
0	H	0.876944	0.405765	0.998052
0	H	0.599584	0.478444	0.337401
0	H	0.515486	0.119656	0.661381
0	H	0.117593	0.605955	0.498159
0	H	0.393991	0.532239	0.83656
0	H	0.478234	0.891993	0.161126
0	C	0.921323	0.348406	0.195762
0	C	0.654532	0.57986	0.530687
0	C	0.416215	0.0818644	0.858574
0	C	0.0729866	0.663209	0.695636
0	C	0.339124	0.4311	0.0313995
0	C	0.577541	0.930084	0.35852
0	C	0.855986	0.320279	0.348906
0	C	0.687506	0.545975	0.68356
0	C	0.454466	0.147025	0.0125718
0	C	0.138349	0.691476	0.848776
0	C	0.307272	0.466102	0.184326
0	C	0.539366	0.864857	0.512326
0	H	0.874994	0.357972	0.486975
0	H	0.652815	0.530101	0.826977
0	H	0.469514	0.125376	0.153096
0	H	0.119467	0.653641	0.986555
0	H	0.342643	0.482386	0.32646
0	H	0.524357	0.886458	0.653046
0	H	0.84304	0.264766	0.413729
0	H	0.743275	0.589383	0.737685
0	H	0.414376	0.164464	0.0721888
0	H	0.151095	0.746887	0.91402
0	H	0.25163	0.423334	0.240991
0	H	0.57946	0.847363	0.571562
0	C	0.783864	0.315754	0.270905
0	C	0.693402	0.477835	0.611415
0	C	0.524045	0.216785	0.938671
0	C	0.21062	0.696427	0.770439
0	C	0.301738	0.534251	0.110379
0	C	0.469746	0.795198	0.438194
0	H	0.793528	0.370254	0.207342
0	H	0.639257	0.432716	0.554231
0	H	0.566167	0.202886	0.876564
0	H	0.201224	0.642013	0.706895
0	H	0.355737	0.578627	0.0501283
0	H	0.427723	0.809226	0.375966
0	H	0.746301	0.307659	0.404246
0	H	0.704605	0.450949	0.746526
0	H	0.553574	0.253027	0.0736377
0	H	0.248311	0.704777	0.903607
0	H	0.291865	0.56243	0.24486
0	H	0.440044	0.758895	0.572933
0	C	0.744763	0.252257	0.11663
0	C	0.755031	0.499688	0.452419
0	C	0.504536	0.260812	0.784301
0	C	0.249363	0.759911	0.615908
0	C	0.239329	0.512054	0.953774
0	C	0.489232	0.75114	0.283854
0	H	0.750586	0.202732	0.16155
0	H	0.803596	0.554956	0.490687
0	H	0.45169	0.259851	0.827617
0	H	0.243136	0.809222	0.660478
0	H	0.190636	0.457298	0.995174
0	H	0.54195	0.751906	0.32753
0	C	0.770744	0.274333	0.889913
0	C	0.730106	0.500812	0.226751
0	C	0.499839	0.234445	0.557206
0	C	0.223407	0.737558	0.389287
0	C	0.262918	0.509311	0.727508
0	C	0.494175	0.777573	0.0567515
0	C	0.751223	0.332327	0.808064
0	C	0.671817	0.42397	0.152891
0	C	0.574745	0.247737	0.477496
0	C	0.243314	0.67977	0.307993
0	C	0.320452	0.585782	0.649071
0	C	0.419321	0.76436	0.976769
0	H	0.787115	0.388055	0.872512
0	H	0.617765	0.4059	0.226707
0	H	0.590663	0.208091	0.543315
0	H	0.207733	0.624049	0.372879
0	H	0.375433	0.603973	0.7169
0	H	0.4031	0.803661	0.0435134
0	H	0.693335	0.316988	0.847348
0	H	0.688642	0.381474	0.188688
0	H	0.61873	0.304547	0.518185
0	H	0.301308	0.695472	0.347393
0	H	0.304331	0.628601	0.68786
0	H	0.375391	0.707384	0.0161742
0	H	0.755876	0.337383	0.639057
0	H	0.663407	0.422612	0.985237
0	H	0.57528	0.24301	0.308561
0	H	0.238735	0.674561	0.139015
0	H	0.326729	0.586575	0.480563
0	H	0.419018	0.769625	0.808004
0	C	0.739089	0.203585	0.756854
0	C	0.798834	0.536063	0.0879783
0	C	0.465953	0.272166	0.424046
0	C	0.254727	0.808184	0.255828
0	C	0.193346	0.472769	0.591952
0	C	0.528168	0.739906	0.923781
0	H	0.754765	0.217336	0.595297
0	H	0.783609	0.527804	0.925018
0	H	0.467343	0.259946	0.26083
0	H	0.239028	0.794261	0.0943322
0	H	0.207751	0.475774	0.42898
0	H	0.527688	0.752923	0.760771
0	H	0.678231	0.173211	0.767333
0	H	0.834518	0.510925	0.118172
0	H	0.496669	0.33309	0.445175
0	H	0.315583	0.838839	0.266214
0	H	0.159873	0.500886	0.613005
0	H	0.496893	0.678917	0.942803
0	H	0.760236	0.16593	0.804892
0	H	0.831416	0.596607	0.11336
0	H	0.407511	0.252279	0.463598
0	H	0.233267	0.845604	0.303637
0	H	0.158711	0.413289	0.628829
0	H	0.586342	0.759103	0.965153
0	C	0.968811	0.404137	0.834732
0	C	0.598285	0.570027	0.16845
0	C	0.420678	0.0323175	0.496771
0	C	0.025396	0.607096	0.33515
0	C	0.395026	0.440227	0.669133
0	C	0.572995	0.979541	0.996785
0	H	0.0205742	0.441759	0.917252
0	H	0.559883	0.584787	0.248963
0	H	0.404927	0.979262	0.578427
0	H	0.973811	0.569266	0.418102
0	H	0.433239	0.425299	0.750031
0	H	0.588648	0.0325588	0.0785095
0	H	0.975022	0.360294	0.747954
0	H	0.640703	0.618651	0.0791912
0	H	0.372219	0.0298668	0.412747
0	H	0.018793	0.650753	0.248727
0	H	0.352401	0.391587	0.580282
0	H	0.621497	0.982052	0.912755
0	C	0.0619227	0.335332	0.0917869
0	C	0.65492	0.728363	0.430167
0	C	0.262281	0.944612	0.763879
0	C	0.932702	0.676671	0.588644
0	C	0.338081	0.281995	0.934469
0	C	0.731457	0.0670112	0.260287
0	H	0.0938896	0.305092	0.113047
0	H	0.682044	0.789932	0.447458
0	H	0.201171	0.916262	0.782944
0	H	0.900625	0.706784	0.61038
0	H	0.310463	0.220414	0.951695
0	H	0.792544	0.0956283	0.280096
0	H	0.0924357	0.39015	0.16887
0	H	0.602153	0.703354	0.516768
0	H	0.28362	0.912205	0.849066
0	H	0.901897	0.621489	0.663572
0	H	0.390582	0.3066	0.0222693
0	H	0.7098	0.0995675	0.343367
0	H	0.060881	0.344957	0.926186
0	H	0.642088	0.716034	0.266507
0	H	0.273314	0.942434	0.59977
0	H	0.934388	0.667916	0.422721
0	H	0.351515	0.294306	0.771059
0	H	0.720703	0.0685789	0.095716
0	C	0.974292	0.263462	0.482049
0	C	0.73461	0.717841	0.811815
0	C	0.281624	0.039015	0.143603
0	C	0.0190488	0.747124	0.98186
0	C	0.257935	0.293982	0.313686
0	C	0.712574	0.973901	0.642727
0	H	0.922401	0.21739	0.543135
0	H	0.782414	0.713307	0.870491
0	H	0.292155	0.0938348	0.202074
0	H	0.0706632	0.79317	0.0443827
0	H	0.210377	0.299354	0.370622
0	H	0.702952	0.919457	0.701741
0	H	0.987641	0.313328	0.577881
0	H	0.686406	0.681732	0.910355
0	H	0.313859	0.0206565	0.241876
0	H	0.00569143	0.697023	0.0766202
0	H	0.306061	0.329912	0.412658
0	H	0.679796	0.991668	0.740806
0	H	0.0185084	0.248598	0.505462
0	H	0.74671	0.776067	0.833877
0	H	0.222276	0.999535	0.166524
0	H	0.974545	0.76161	0.00507571
0	H	0.245077	0.235599	0.337188
0	H	0.771739	0.0141406	0.665242
0	C	0.907729	0.196042	0.057406
0	C	0.799237	0.718737	0.380655
0	C	0.283954	0.104104	0.712547
0	C	0.0866537	0.816021	0.559466
0	C	0.194011	0.291608	0.881228
0	C	0.709385	0.907248	0.213137
0	H	0.880802	0.210266	0.930112
0	H	0.786877	0.676286	0.258737
0	H	0.325947	0.130135	0.588753
0	H	0.112964	0.802282	0.429636
0	H	0.206074	0.333681	0.758451
0	H	0.667896	0.881982	0.0877724
0	H	0.863058	0.152535	0.151785
0	H	0.845739	0.721831	0.472997
0	H	0.285074	0.150003	0.805197
0	H	0.131781	0.858743	0.654464
0	H	0.147324	0.288305	0.973036
0	H	0.70695	0.860757	0.305793
0	H	0.940205	0.171677	0.990556
0	H	0.818221	0.773266	0.30658
0	H	0.228933	0.0735085	0.640849
0	H	0.054311	0.841176	0.496463
0	H	0.175439	0.236962	0.808195
0	H	0.764811	0.937211	0.143491
0	O	0.666359	0.230146	0.111479
0	O	0.779426	0.444046	0.450377
0	O	0.563197	0.337963	0.781151
0	O	0.327893	0.782563	0.610683
0	O	0.215719	0.568298	0.950697
0	O	0.430344	0.674096	0.280552
0	H	0.63934	0.19239	0.216742
0	H	0.818586	0.455811	0.552496
0	H	0.555404	0.367044	0.888746
0	H	0.354687	0.820155	0.716536
0	H	0.176322	0.556821	0.0518476
0	H	0.438418	0.644773	0.386698
0	O	0.850114	0.299698	0.877819
0	O	0.704033	0.555484	0.213961
0	O	0.44305	0.156195	0.542723
0	O	0.143962	0.711832	0.377219
0	O	0.289271	0.454869	0.715261
0	O	0.550977	0.855809	0.042684
0	O	0.954545	0.445236	0.677755
0	O	0.558155	0.513763	0.0150715
0	O	0.47296	0.0428247	0.336899
0	O	0.0397246	0.566196	0.177762
0	O	0.435329	0.496141	0.515092
0	O	0.520729	0.968983	0.836884
0	H	0.98343	0.501215	0.705399
0	H	0.502718	0.490387	0.039363
0	H	0.502407	0.0157084	0.369513
0	H	0.0109501	0.510186	0.205289
0	H	0.490768	0.519479	0.539346
0	H	0.491148	0.995938	0.869451
0	O	0.979868	0.421601	0.273114
0	O	0.581124	0.563746	0.612024
0	O	0.428088	0.019809	0.932866
0	O	0.0144784	0.590001	0.773135
0	O	0.412393	0.446334	0.112012
0	O	0.565533	0.992033	0.432839
0	H	0.970173	0.427821	0.423286
0	H	0.574864	0.544152	0.75825
0	H	0.44051	0.0264617	0.0854039
0	H	0.0240145	0.583857	0.923476
0	H	0.418826	0.465559	0.25865
0	H	0.553099	0.985382	0.585345
