#******************************************
#
# CIF file created by Zeo++
# Zeo++ is an open source package to
# analyze microporous materials
#
#*******************************************

_cell_length_a		22.4971(0)
_cell_length_b		22.5548(0)
_cell_length_c		5.98391(0)
_cell_angle_alpha		90(0)
_cell_angle_beta		90(0)
_cell_angle_gamma		120.235(0)

_symmetry_space_group_name_H-M		'P1'
_symmetry_Int_Tables_number		1
_symmetry_cell_setting		Monoclinic

loop_
_symmetry_equiv_pos_as_xyz
'+x,+y,+z'

loop_
_atom_site_label
_atom_site_type_symbol
_atom_site_fract_x
_atom_site_fract_y
_atom_site_fract_z
0	S	0.497985	0.557157	0.0284239
0	S	0.450111	0.937872	0.0328239
0	S	0.0687828	0.51189	0.0319468
0	S	0.164201	0.891727	0.355793
0	S	0.116075	0.272887	0.359298
0	S	0.735799	0.846625	0.360582
0	S	0.830732	0.221662	0.685573
0	S	0.78696	0.606867	0.688588
0	S	0.398151	0.176514	0.691492
0	C	0.503883	0.573399	0.731163
0	C	0.43408	0.928392	0.73526
0	C	0.0786167	0.505645	0.73455
0	C	0.170413	0.90932	0.0596425
0	C	0.0986341	0.261748	0.0629168
0	C	0.746785	0.839485	0.0647156
0	C	0.838317	0.239163	0.389129
0	C	0.769456	0.59757	0.392136
0	C	0.408781	0.169571	0.395163
0	C	0.485487	0.503998	0.617855
0	C	0.503347	0.980995	0.622827
0	C	0.0268703	0.523065	0.621603
0	C	0.15138	0.840284	0.942611
0	C	0.167775	0.312677	0.946356
0	C	0.69625	0.857717	0.947276
0	C	0.819863	0.169953	0.274239
0	C	0.8388	0.649086	0.277531
0	C	0.358352	0.188257	0.279302
0	N	0.498189	0.461163	0.778524
0	N	0.545793	0.0362536	0.785796
0	N	0.971473	0.510558	0.783449
0	N	0.164038	0.796602	0.0998082
0	N	0.211139	0.369169	0.104475
0	N	0.639662	0.844901	0.104631
0	N	0.833027	0.127082	0.433572
0	N	0.881844	0.705013	0.437962
0	N	0.301944	0.175251	0.437631
0	C	0.49406	0.475692	0.0200222
0	C	0.531455	0.016284	0.0264059
0	C	0.990917	0.515488	0.0243975
0	C	0.160935	0.810575	0.342655
0	C	0.197378	0.35145	0.347031
0	C	0.657414	0.849289	0.34726
0	C	0.828422	0.140973	0.675525
0	C	0.867843	0.685858	0.679445
0	C	0.319681	0.17914	0.680055
0	C	0.560566	0.473833	0.0639915
0	C	0.532789	0.0839656	0.0755451
0	C	0.922482	0.44903	0.0712187
0	C	0.22771	0.808721	0.381184
0	C	0.198909	0.419635	0.388125
0	C	0.589007	0.782249	0.389123
0	C	0.895648	0.14051	0.719425
0	C	0.868044	0.753149	0.725411
0	C	0.251082	0.112127	0.720847
0	C	0.563058	0.462655	0.808438
0	C	0.543884	0.0990158	0.820607
0	C	0.907939	0.445805	0.816043
0	C	0.228995	0.797985	0.124943
0	C	0.20899	0.432083	0.131792
0	C	0.576314	0.779641	0.132901
0	C	0.898385	0.129665	0.463964
0	C	0.879274	0.767574	0.470239
0	C	0.238837	0.109731	0.464765
0	O	0.599144	0.456201	0.677793
0	O	0.549879	0.141998	0.692989
0	O	0.864772	0.409285	0.687275
0	O	0.264308	0.79157	0.99085
0	O	0.21446	0.473672	0.998867
0	O	0.534379	0.743208	0.000670132
0	O	0.93506	0.124027	0.333623
0	O	0.885372	0.810299	0.341175
0	O	0.198011	0.0733459	0.32899
0	Cl	0.54916	0.404255	0.224599
0	Cl	0.602214	0.141967	0.238807
0	Cl	0.864513	0.460274	0.23382
0	Cl	0.217117	0.738634	0.537172
0	Cl	0.26924	0.479508	0.544319
0	Cl	0.529151	0.792039	0.546233
0	Cl	0.885679	0.0714488	0.879746
0	Cl	0.936938	0.812594	0.887227
0	Cl	0.191154	0.122277	0.876498
0	O	0.405089	0.403711	0.407838
0	O	0.604389	0.00401971	0.411975
0	O	0.00586609	0.601996	0.41002
0	O	0.0699191	0.740883	0.731334
0	O	0.268048	0.332841	0.736272
0	O	0.677401	0.938102	0.735666
0	O	0.738937	0.0699662	0.0640711
0	O	0.93894	0.669392	0.0662356
0	O	0.339626	0.268671	0.067349
0	O	0.560802	0.60479	0.148761
0	O	0.401916	0.951794	0.153935
0	O	0.0534878	0.449287	0.152501
0	O	0.226521	0.939063	0.478974
0	O	0.0683724	0.287135	0.482117
0	O	0.720685	0.784897	0.486041
0	O	0.892364	0.269368	0.81092
0	O	0.739089	0.620079	0.81456
0	O	0.383226	0.114695	0.81583
0	O	0.433975	0.546653	0.123078
0	O	0.461114	0.884725	0.125748
0	O	0.122693	0.575772	0.126218
0	O	0.0997778	0.880557	0.44883
0	O	0.127458	0.220013	0.452312
0	O	0.789467	0.911267	0.451233
0	O	0.765559	0.209521	0.774772
0	O	0.799032	0.553851	0.776344
0	O	0.451761	0.241147	0.782479
0	C	0.455256	0.599081	0.669627
0	C	0.409162	0.854378	0.671188
0	C	0.153087	0.554466	0.671074
0	C	0.122198	0.935785	0.00137614
0	C	0.0725187	0.187168	0.00361278
0	C	0.82177	0.887687	0.00472986
0	C	0.790446	0.265669	0.32626
0	C	0.742794	0.523267	0.327663
0	C	0.483664	0.21735	0.333463
0	C	0.577917	0.626986	0.674925
0	C	0.3796	0.947474	0.681639
0	C	0.0582843	0.431802	0.680403
0	C	0.24461	0.962719	0.00503619
0	C	0.0449203	0.28181	0.00892045
0	C	0.725955	0.765452	0.0121136
0	C	0.91272	0.29236	0.336168
0	C	0.716109	0.618342	0.340953
0	C	0.387233	0.0953773	0.341848
0	C	0.410371	0.459653	0.536976
0	C	0.548721	0.951995	0.539994
0	C	0.0572048	0.597706	0.539023
0	C	0.0760511	0.796698	0.863208
0	C	0.212015	0.282086	0.866315
0	C	0.727702	0.932688	0.866872
0	C	0.744524	0.125616	0.195502
0	C	0.883108	0.618643	0.196804
0	C	0.389834	0.263266	0.19924
0	H	0.520361	0.51464	0.470256
0	H	0.492384	0.00535395	0.476664
0	H	0.00219301	0.487684	0.475419
0	H	0.185925	0.851371	0.793753
0	H	0.156551	0.336069	0.798001
0	H	0.672687	0.822901	0.79904
0	H	0.854452	0.180856	0.125658
0	H	0.827909	0.673034	0.130008
0	H	0.334472	0.153562	0.130981
0	H	0.447017	0.433497	0.106253
0	H	0.574117	0.01189	0.110303
0	H	0.995886	0.562561	0.109335
0	H	0.114307	0.768179	0.429985
0	H	0.24003	0.347613	0.433172
0	H	0.661431	0.895858	0.432641
0	H	0.781699	0.0981459	0.761134
0	H	0.910898	0.682362	0.764211
0	H	0.323822	0.225637	0.766561
0	H	0.605452	0.522156	0.127488
0	H	0.484163	0.0793396	0.140511
0	H	0.926401	0.404692	0.135324
0	H	0.272922	0.856922	0.44412
0	H	0.150623	0.415773	0.453187
0	H	0.593011	0.738033	0.454091
0	H	0.940099	0.189301	0.782832
0	H	0.819017	0.747896	0.789141
0	H	0.254718	0.0676977	0.786071
0	H	0.415926	0.374228	0.5023
0	H	0.632677	0.0449729	0.506358
0	H	0.964876	0.589843	0.503773
0	H	0.0788654	0.709989	0.825164
0	H	0.297889	0.373325	0.830367
0	H	0.637208	0.928465	0.829553
0	H	0.749722	0.0401003	0.15697
0	H	0.968547	0.710261	0.159531
0	H	0.298984	0.258211	0.160322
0	H	0.448793	0.599667	0.48639
0	H	0.409329	0.847913	0.487906
0	H	0.159805	0.560544	0.4877
0	H	0.116275	0.937889	0.818744
0	H	0.0706113	0.179396	0.820752
0	H	0.829437	0.893318	0.82182
0	H	0.784904	0.267045	0.143037
0	H	0.741832	0.516681	0.144287
0	H	0.490847	0.222873	0.150352
0	H	0.474238	0.652236	0.726856
0	H	0.355657	0.819377	0.725795
0	H	0.187618	0.535963	0.728155
0	H	0.141135	0.98842	0.0639961
0	H	0.0197106	0.152775	0.0653344
0	H	0.855709	0.868958	0.0663299
0	H	0.809408	0.318559	0.38588
0	H	0.689517	0.488981	0.385546
0	H	0.517524	0.198397	0.39377
0	H	0.403365	0.56807	0.740795
0	H	0.440178	0.833897	0.743226
0	H	0.174066	0.606337	0.741089
0	H	0.070102	0.904431	0.0708616
0	H	0.104113	0.166968	0.0729945
0	H	0.842778	0.939703	0.0735365
0	H	0.738161	0.234665	0.394616
0	H	0.773465	0.501955	0.396653
0	H	0.505107	0.269469	0.401846
0	H	0.585082	0.635223	0.491696
0	H	0.370647	0.946042	0.49888
0	H	0.0595723	0.424311	0.497476
0	H	0.252334	0.970983	0.821884
0	H	0.0363264	0.280929	0.826009
0	H	0.727058	0.757706	0.829373
0	H	0.920609	0.300649	0.153068
0	H	0.707235	0.617566	0.158059
0	H	0.387865	0.0876328	0.158612
0	H	0.616269	0.613582	0.730829
0	H	0.392744	0.999161	0.737363
0	H	0.00623092	0.39341	0.736012
0	H	0.282789	0.949258	0.0624591
0	H	0.0585185	0.333555	0.0656689
0	H	0.673804	0.727392	0.0682324
0	H	0.950604	0.278606	0.394728
0	H	0.730279	0.670131	0.398582
0	H	0.335111	0.0575409	0.399088
0	H	0.593248	0.677407	0.748393
0	H	0.329531	0.911644	0.757381
0	H	0.0935621	0.417066	0.756068
0	H	0.259791	0.0131558	0.0782718
0	H	0.994537	0.246264	0.0833171
0	H	0.760988	0.750506	0.0881223
0	H	0.928248	0.342859	0.409241
0	H	0.665746	0.583144	0.416001
0	H	0.422005	0.079844	0.416079
0	H	0.372582	0.439227	0.675069
0	H	0.569798	0.935167	0.67716
0	H	0.07451	0.63567	0.676248
0	H	0.0386313	0.776224	0.00247263
0	H	0.232546	0.265151	0.00499055
0	H	0.744831	0.970223	0.00558687
0	H	0.70728	0.104895	0.335136
0	H	0.903888	0.60199	0.335497
0	H	0.406711	0.300727	0.33793
0	H	0.395524	0.487442	0.414887
0	H	0.521472	0.909304	0.417293
0	H	0.0999619	0.61277	0.416587
0	H	0.0614278	0.825143	0.742987
0	H	0.184006	0.239066	0.745034
0	H	0.770874	0.947573	0.746239
0	H	0.729073	0.153444	0.0757214
0	H	0.855176	0.575474	0.0760836
0	H	0.433178	0.278322	0.0791593
