#******************************************
#
# CIF file created by Zeo++
# Zeo++ is an open source package to
# analyze microporous materials
#
#*******************************************

_cell_length_a		13.666(0)
_cell_length_b		13.951(0)
_cell_length_c		17.911(0)
_cell_angle_alpha		90(0)
_cell_angle_beta		90(0)
_cell_angle_gamma		90(0)

_symmetry_space_group_name_H-M		'P1'
_symmetry_Int_Tables_number		1
_symmetry_cell_setting		Monoclinic

loop_
_symmetry_equiv_pos_as_xyz
'+x,+y,+z'

loop_
_atom_site_label
_atom_site_type_symbol
_atom_site_fract_x
_atom_site_fract_y
_atom_site_fract_z
0	C	0.202829	0.0961989	0.54034
0	C	0.344742	0.379805	0.0345584
0	C	0.832034	0.0880958	0.0583321
0	C	0.70969	0.403559	0.563648
0	C	0.835491	0.886815	0.559169
0	C	0.693431	0.604601	0.0639164
0	C	0.205469	0.895716	0.0396543
0	C	0.329496	0.581469	0.534689
0	C	0.109335	0.0429241	0.545705
0	C	0.434004	0.43735	0.040359
0	C	0.927171	0.0390084	0.0530573
0	C	0.612286	0.448717	0.557639
0	C	0.92903	0.940014	0.554522
0	C	0.604189	0.547102	0.0583832
0	C	0.110321	0.944926	0.0449378
0	C	0.426676	0.535831	0.539985
0	C	0.107123	0.942278	0.542233
0	C	0.429129	0.537741	0.0395733
0	C	0.932736	0.938528	0.0545729
0	C	0.604087	0.545413	0.537117
0	C	0.931293	0.0406542	0.558166
0	C	0.609031	0.446688	0.0592342
0	C	0.104809	0.04537	0.0434274
0	C	0.43488	0.438992	0.560249
0	H	0.176004	0.901424	0.536484
0	H	0.35856	0.574411	0.0307417
0	H	0.865436	0.89602	0.0581545
0	H	0.670944	0.587859	0.528866
0	H	0.862388	0.0815558	0.563807
0	H	0.679556	0.40996	0.0680553
0	H	0.172136	0.0879071	0.0398502
0	H	0.368078	0.396384	0.568361
0	C	0.0196534	0.0912131	0.554114
0	C	0.524811	0.391936	0.0493501
0	C	0.0142451	0.091927	0.0466043
0	C	0.526347	0.395833	0.569869
0	C	0.018735	0.891696	0.546362
0	C	0.513318	0.592485	0.0495313
0	C	0.0232929	0.891993	0.0514029
0	C	0.512652	0.588558	0.527543
0	H	0.0180061	0.169761	0.557815
0	H	0.529789	0.313361	0.0487811
0	H	0.0112842	0.170547	0.0439691
0	H	0.530473	0.32064	0.586992
0	H	0.0202148	0.813157	0.542899
0	H	0.508331	0.671066	0.0502565
0	H	0.0263164	0.813383	0.0540427
0	H	0.50858	0.663697	0.510428
0	C	0.313419	0.989266	0.46002
0	C	0.21918	0.485925	0.969067
0	C	0.722584	0.982819	0.141684
0	C	0.812942	0.511695	0.647946
0	C	0.724318	0.993676	0.638995
0	C	0.81933	0.498356	0.12899
0	C	0.315129	0.00102367	0.956534
0	C	0.223701	0.473357	0.452658
0	H	0.290795	0.921654	0.490845
0	H	0.237165	0.554493	0.00118053
0	H	0.747091	0.911679	0.116525
0	H	0.793794	0.582371	0.620713
0	H	0.74772	0.061294	0.608544
0	H	0.801426	0.429845	0.0967863
0	H	0.290551	0.0720621	0.981867
0	H	0.242617	0.402388	0.47956
0	C	0.423286	0.982588	0.441922
0	C	0.10751	0.482749	0.959015
0	C	0.611402	0.977646	0.154628
0	C	0.921658	0.513814	0.669899
0	C	0.614284	0.000915001	0.65629
0	C	0.931003	0.501702	0.138938
0	C	0.426287	0.00617395	0.94375
0	C	0.114767	0.47195	0.431341
0	H	0.467602	0.980937	0.493791
0	H	0.0699135	0.483452	0.0140342
0	H	0.573354	0.963511	0.100942
0	H	0.968078	0.515062	0.61922
0	H	0.570615	0.00274837	0.604078
0	H	0.968511	0.501298	0.0838828
0	H	0.464327	0.0199128	0.99754
0	H	0.069008	0.471008	0.48238
0	H	0.447752	0.0467966	0.410669
0	H	0.0840838	0.415464	0.931416
0	H	0.582501	0.0474589	0.174908
0	H	0.943156	0.447771	0.700084
0	H	0.589115	0.936809	0.68737
0	H	0.954373	0.568894	0.166709
0	H	0.455102	0.936429	0.923218
0	H	0.0929907	0.538172	0.40144
0	C	0.441316	0.890774	0.396532
0	C	0.0762698	0.570209	0.912854
0	C	0.587964	0.89871	0.211474
0	C	0.93681	0.603307	0.718255
0	C	0.596225	0.0928362	0.7015
0	C	0.962439	0.414076	0.184827
0	C	0.449848	0.0854856	0.887248
0	C	0.0985863	0.382747	0.382842
0	H	0.51928	0.888346	0.379141
0	H	0.996017	0.569367	0.903666
0	H	0.508156	0.898944	0.223895
0	H	0.0149623	0.612159	0.73327
0	H	0.518024	0.0957866	0.718218
0	H	0.0426967	0.414963	0.193898
0	H	0.529709	0.0853207	0.874937
0	H	0.0202268	0.374609	0.368306
0	H	0.428314	0.827032	0.432144
0	H	0.0919168	0.637118	0.944026
0	H	0.60524	0.827254	0.187833
0	H	0.916976	0.668135	0.685901
0	H	0.610177	0.156483	0.665983
0	H	0.946786	0.34728	0.153501
0	H	0.432408	0.156764	0.911163
0	H	0.118183	0.317503	0.414816
0	C	0.378051	0.883007	0.32612
0	C	0.129236	0.571301	0.837447
0	C	0.644103	0.915106	0.284442
0	C	0.874633	0.597782	0.789349
0	C	0.658528	0.100244	0.772451
0	C	0.909618	0.412558	0.260298
0	C	0.393943	0.0696152	0.814118
0	C	0.159969	0.388244	0.311317
0	H	0.383584	0.808906	0.303836
0	H	0.104842	0.632936	0.803012
0	H	0.628124	0.856592	0.324714
0	H	0.882528	0.664363	0.822453
0	H	0.653358	0.174471	0.794522
0	H	0.934042	0.350654	0.294408
0	H	0.409955	0.128458	0.77416
0	H	0.151405	0.321804	0.278147
0	H	0.408837	0.929659	0.28164
0	H	0.108278	0.506051	0.805542
0	H	0.616624	0.98185	0.311063
0	H	0.903524	0.539731	0.825571
0	H	0.626561	0.0540294	0.81672
0	H	0.930575	0.477592	0.292428
0	H	0.421599	0.00314305	0.787228
0	H	0.131013	0.446748	0.27549
0	C	0.270144	0.90685	0.339899
0	C	0.240463	0.573709	0.847402
0	C	0.754616	0.923225	0.271677
0	C	0.766044	0.580176	0.772692
0	C	0.766406	0.0753553	0.759796
0	C	0.798381	0.410093	0.250453
0	C	0.283411	0.0613339	0.826713
0	C	0.268845	0.405299	0.327232
0	H	0.234835	0.8447	0.367401
0	H	0.262142	0.642252	0.874025
0	H	0.78365	0.852861	0.252972
0	H	0.733491	0.647487	0.751073
0	H	0.802902	0.137394	0.733108
0	H	0.77673	0.341631	0.223691
0	H	0.254333	0.131573	0.845641
0	H	0.301401	0.337655	0.348216
0	H	0.232429	0.916251	0.285735
0	H	0.277335	0.573493	0.792044
0	H	0.791374	0.940183	0.325426
0	H	0.726653	0.564265	0.825229
0	H	0.802904	0.0651524	0.814364
0	H	0.761582	0.409999	0.305869
0	H	0.246759	0.044784	0.772863
0	H	0.30758	0.421488	0.274447
0	C	0.253884	0.996879	0.387136
0	C	0.276061	0.48915	0.894687
0	C	0.780245	0.000493738	0.214228
0	C	0.747059	0.49879	0.716995
0	C	0.782959	0.985617	0.712281
0	C	0.762586	0.494793	0.203427
0	C	0.257671	0.983689	0.883812
0	C	0.288905	0.486214	0.38319
0	H	0.275534	0.0622574	0.355685
0	H	0.268097	0.420308	0.864073
0	H	0.763183	0.0729	0.236398
0	H	0.759396	0.427617	0.743352
0	H	0.760893	0.920024	0.743359
0	H	0.770513	0.563517	0.234189
0	H	0.274898	0.911438	0.861412
0	H	0.276894	0.557677	0.357194
0	H	0.174945	0.00555257	0.399143
0	H	0.355455	0.496647	0.905423
0	H	0.860025	0.99999	0.203305
0	H	0.669108	0.499502	0.7002
0	H	0.862029	0.976907	0.700758
0	H	0.683176	0.487221	0.19278
0	H	0.177865	0.98406	0.89462
0	H	0.367019	0.484742	0.399553
0	C	0.180993	0.243888	0.623837
0	C	0.378523	0.229517	0.110135
0	C	0.851252	0.243209	0.981902
0	C	0.695173	0.256626	0.479824
0	C	0.857711	0.74033	0.474631
0	C	0.659362	0.755056	0.988563
0	C	0.186073	0.740736	0.116268
0	C	0.345811	0.728298	0.61756
0	H	0.106178	0.267016	0.603846
0	H	0.456474	0.216018	0.0917028
0	H	0.926919	0.260991	0.00318774
0	H	0.624508	0.226694	0.502834
0	H	0.933002	0.718081	0.494177
0	H	0.58167	0.768952	0.00741925
0	H	0.110406	0.722745	0.0950442
0	H	0.4176	0.756726	0.595538
0	C	0.242328	0.333416	0.64166
0	C	0.325895	0.13316	0.120549
0	C	0.789504	0.335063	0.976616
0	C	0.762369	0.172242	0.459238
0	C	0.797381	0.650152	0.456833
0	C	0.712474	0.851075	0.977673
0	C	0.247915	0.648982	0.121808
0	C	0.280121	0.813992	0.637497
0	H	0.256311	0.375169	0.589855
0	H	0.323232	0.0947761	0.0664023
0	H	0.777769	0.365399	0.0338178
0	H	0.782679	0.131366	0.510282
0	H	0.784733	0.607782	0.508525
0	H	0.716156	0.889486	0.0317651
0	H	0.259754	0.618402	0.0647609
0	H	0.261741	0.855249	0.586256
0	H	0.314801	0.311984	0.664178
0	H	0.249198	0.143409	0.138795
0	H	0.716078	0.318555	0.953626
0	H	0.832072	0.197982	0.434797
0	H	0.724247	0.670876	0.435095
0	H	0.788826	0.840348	0.958769
0	H	0.321322	0.665703	0.144819
0	H	0.209486	0.789707	0.661157
0	C	0.187974	0.395357	0.698838
0	C	0.380043	0.0737925	0.179237
0	C	0.840818	0.408348	0.926673
0	C	0.707726	0.107545	0.404023
0	C	0.851517	0.589263	0.398854
0	C	0.657865	0.910686	0.91939
0	C	0.196788	0.575892	0.172032
0	C	0.334801	0.877586	0.693433
0	H	0.232444	0.459286	0.712557
0	H	0.345651	0.00242992	0.185324
0	H	0.794511	0.473099	0.920813
0	H	0.754602	0.0462318	0.387421
0	H	0.807356	0.52511	0.385139
0	H	0.692517	0.981887	0.913045
0	H	0.243001	0.511113	0.177983
0	H	0.288729	0.939676	0.709461
0	H	0.119195	0.423529	0.674379
0	H	0.456176	0.0598115	0.160293
0	H	0.909534	0.433265	0.953076
0	H	0.642821	0.0756753	0.431712
0	H	0.920855	0.561461	0.422672
0	H	0.582041	0.925009	0.938884
0	H	0.127988	0.55091	0.145785
0	H	0.40084	0.908361	0.666629
0	C	0.165436	0.339064	0.770342
0	C	0.382253	0.127121	0.254046
0	C	0.862377	0.366038	0.849403
0	C	0.674825	0.162847	0.334338
0	C	0.872682	0.646306	0.327486
0	C	0.654453	0.857387	0.844611
0	C	0.175419	0.618571	0.249178
0	C	0.365004	0.82159	0.763437
0	H	0.233567	0.32853	0.803021
0	H	0.307175	0.1336	0.277161
0	H	0.79321	0.359668	0.817107
0	H	0.739098	0.18134	0.299592
0	H	0.804084	0.656541	0.295318
0	H	0.729188	0.850932	0.820749
0	H	0.244655	0.625292	0.281328
0	H	0.299636	0.804314	0.797366
0	H	0.117134	0.382985	0.806923
0	H	0.424083	0.0852283	0.295861
0	H	0.908161	0.417238	0.816898
0	H	0.628705	0.115638	0.298762
0	H	0.920918	0.603173	0.290341
0	H	0.611999	0.899361	0.803181
0	H	0.129811	0.567432	0.281924
0	H	0.411236	0.867844	0.799687
0	C	0.116769	0.242263	0.75513
0	C	0.4284	0.226573	0.245397
0	C	0.913629	0.268653	0.853052
0	C	0.617608	0.253963	0.353362
0	C	0.920585	0.743449	0.342929
0	C	0.608384	0.757955	0.85351
0	C	0.123914	0.715804	0.245319
0	C	0.420736	0.729366	0.745084
0	H	0.0397686	0.254147	0.737958
0	H	0.507204	0.218211	0.232117
0	H	0.98975	0.277989	0.873195
0	H	0.544608	0.234189	0.375674
0	H	0.99788	0.732167	0.359628
0	H	0.529666	0.766394	0.867009
0	H	0.0477915	0.706176	0.22528
0	H	0.494589	0.747773	0.723733
0	H	0.113176	0.200296	0.807456
0	H	0.424944	0.265451	0.299324
0	H	0.919655	0.238698	0.795992
0	H	0.60362	0.295428	0.301724
0	H	0.923366	0.785841	0.290761
0	H	0.611529	0.719037	0.799563
0	H	0.117877	0.745974	0.302353
0	H	0.432801	0.687588	0.796881
0	C	0.169866	0.183532	0.695401
0	C	0.379352	0.28625	0.184138
0	C	0.860174	0.197669	0.903895
0	C	0.671016	0.317144	0.410105
0	C	0.867358	0.801195	0.403192
0	C	0.657654	0.698245	0.914626
0	C	0.177047	0.78665	0.194131
0	C	0.367288	0.667316	0.687567
0	H	0.243429	0.16114	0.715034
0	H	0.303537	0.304951	0.200815
0	H	0.786358	0.181337	0.88161
0	H	0.738397	0.348296	0.385208
0	H	0.793281	0.822772	0.384052
0	H	0.733306	0.679235	0.897678
0	H	0.250824	0.803389	0.216343
0	H	0.298881	0.637387	0.711607
0	H	0.128837	0.116875	0.684271
0	H	0.41905	0.354768	0.177403
0	H	0.899934	0.128836	0.906042
0	H	0.624227	0.378902	0.425044
0	H	0.907664	0.868283	0.414365
0	H	0.617733	0.629882	0.921587
0	H	0.137013	0.855326	0.191783
0	H	0.413223	0.604745	0.673216
0	B	0.335571	0.170346	0.534586
0	B	0.217318	0.298707	0.0319459
0	B	0.698239	0.15924	0.0655466
0	B	0.84586	0.33666	0.570837
0	B	0.702319	0.813204	0.563181
0	B	0.820997	0.685581	0.0661887
0	B	0.339155	0.824462	0.0328435
0	B	0.192422	0.64747	0.529457
0	N	0.291475	0.0699206	0.510762
0	N	0.251878	0.404894	0.0154504
0	N	0.743154	0.0580028	0.0858875
0	N	0.796875	0.436711	0.591643
0	N	0.746548	0.913127	0.588321
0	N	0.786446	0.579413	0.0827736
0	N	0.294293	0.925608	0.0121414
0	N	0.24112	0.547821	0.509285
0	N	0.226677	0.188296	0.562804
0	N	0.330502	0.283178	0.0494199
0	N	0.805749	0.179112	0.0368952
0	N	0.739684	0.314726	0.539584
0	N	0.811651	0.794972	0.53603
0	N	0.707716	0.701227	0.0490454
0	N	0.231471	0.804574	0.0610373
0	N	0.300942	0.671465	0.557254
0	Cl	0.379436	0.249129	0.46107
0	Cl	0.167289	0.234132	0.952546
0	Cl	0.658955	0.233544	0.143652
0	Cl	0.883857	0.261046	0.648685
0	Cl	0.656404	0.733843	0.635563
0	Cl	0.871287	0.750146	0.145527
0	Cl	0.379107	0.749897	0.955142
0	Cl	0.149916	0.721384	0.451962
0	Cl	0.429573	0.163416	0.605984
0	Cl	0.13268	0.286883	0.109524
0	Cl	0.604017	0.159116	0.994725
0	Cl	0.945564	0.338395	0.5046
0	Cl	0.609921	0.821545	0.490653
0	Cl	0.905338	0.697155	0.988398
0	Cl	0.432897	0.825082	0.104104
0	Cl	0.0968502	0.646966	0.599195
