#******************************************
#
# CIF file created by Zeo++
# Zeo++ is an open source package to
# analyze microporous materials
#
#*******************************************

_cell_length_a		9.02111(0)
_cell_length_b		11.5279(0)
_cell_length_c		16.0507(0)
_cell_angle_alpha		76.7286(0)
_cell_angle_beta		82.7835(0)
_cell_angle_gamma		67.8605(0)

_symmetry_space_group_name_H-M		'P1'
_symmetry_Int_Tables_number		1
_symmetry_cell_setting		Triclinic

loop_
_symmetry_equiv_pos_as_xyz
'+x,+y,+z'

loop_
_atom_site_label
_atom_site_type_symbol
_atom_site_fract_x
_atom_site_fract_y
_atom_site_fract_z
0	Cl	0.391424	0.792638	0.0907269
0	Cl	0.760129	0.222072	0.91371
0	Cl	0.442961	0.298784	0.218442
0	Cl	0.708854	0.715667	0.785124
0	C	0.0763312	0.497975	0.28114
0	C	0.076213	0.515798	0.72288
0	H	0.945799	0.544924	0.294725
0	H	0.206854	0.46879	0.709516
0	H	0.100743	0.394405	0.284522
0	H	0.0516934	0.619519	0.719015
0	C	0.137838	0.559616	0.194479
0	C	0.014508	0.454864	0.809725
0	H	0.17728	0.489735	0.150465
0	H	0.975269	0.525028	0.85352
0	C	0.281817	0.589762	0.216102
0	C	0.870428	0.424572	0.788382
0	H	0.241806	0.695606	0.212965
0	H	0.910341	0.3187	0.792493
0	N	0.318887	0.517666	0.308305
0	N	0.834111	0.495319	0.695885
0	C	0.373272	0.580652	0.366061
0	C	0.779763	0.432161	0.638319
0	H	0.451145	0.497581	0.413061
0	H	0.701957	0.515237	0.591258
0	C	0.217564	0.655012	0.415075
0	C	0.935406	0.35779	0.589266
0	H	0.170692	0.759708	0.384521
0	H	0.982234	0.253065	0.619691
0	C	0.0955556	0.596786	0.402555
0	C	0.05752	0.415963	0.60178
0	N	0.171513	0.507228	0.347152
0	N	0.981499	0.505642	0.657054
0	O	0.962766	0.612775	0.43532
0	O	0.190238	0.400017	0.568923
0	C	0.0104586	0.679941	0.149656
0	C	0.141872	0.334498	0.854609
0	O	0.966648	0.695281	0.0781209
0	O	0.185855	0.319151	0.926103
0	O	0.953618	0.7688	0.199633
0	O	0.198517	0.245607	0.804649
0	C	0.839946	0.902587	0.167137
0	C	0.312094	0.111737	0.837056
0	C	0.932745	0.96443	0.0972139
0	C	0.219239	0.0498821	0.906933
0	H	0.0429386	0.962406	0.120989
0	H	0.108987	0.0520391	0.883144
0	H	0.861776	0.0647742	0.072451
0	H	0.290134	0.949479	0.931613
0	H	0.967935	0.91546	0.0426301
0	H	0.184155	0.0987402	0.961571
0	C	0.691984	0.894754	0.136478
0	C	0.460175	0.119371	0.867717
0	H	0.719931	0.849146	0.0803713
0	H	0.432352	0.164971	0.923828
0	H	0.600282	0.990005	0.118448
0	H	0.551756	0.0240499	0.885736
0	H	0.637634	0.838182	0.186273
0	H	0.514621	0.175863	0.817908
0	C	0.806225	0.958291	0.247839
0	C	0.345698	0.0561232	0.756319
0	H	0.743226	0.910185	0.298612
0	H	0.408613	0.104261	0.705511
0	H	0.731189	0.0602196	0.234444
0	H	0.420764	0.954199	0.769665
0	H	0.916834	0.949225	0.274923
0	H	0.235074	0.0651474	0.729281
0	C	0.42933	0.543932	0.159074
0	C	0.722581	0.470748	0.845128
0	C	0.494961	0.629226	0.105149
0	C	0.656813	0.38556	0.899083
0	C	0.641322	0.588791	0.0592153
0	C	0.510367	0.426118	0.944929
0	H	0.693798	0.656477	0.0199241
0	H	0.457797	0.358475	0.984208
0	C	0.722173	0.457917	0.0626111
0	C	0.429613	0.557023	0.941441
0	H	0.833924	0.424491	0.0247246
0	H	0.31785	0.590506	0.979319
0	C	0.657879	0.370057	0.112039
0	C	0.493925	0.644788	0.891896
0	H	0.719492	0.268062	0.113031
0	H	0.432279	0.746805	0.890792
0	C	0.513971	0.413214	0.159746
0	C	0.637826	0.60151	0.844196
0	C	0.47339	0.661756	0.319887
0	C	0.679337	0.351346	0.684482
0	H	0.410012	0.727393	0.261903
0	H	0.742451	0.285715	0.742521
0	C	0.639057	0.573532	0.292673
0	C	0.513708	0.439897	0.711505
0	H	0.71505	0.523141	0.347903
0	H	0.438018	0.490371	0.656168
0	H	0.701045	0.627807	0.246525
0	H	0.451312	0.385876	0.757571
0	H	0.63258	0.498563	0.2635
0	H	0.520344	0.514821	0.740674
0	C	0.493693	0.744164	0.376759
0	C	0.658856	0.269093	0.627551
0	H	0.381489	0.821839	0.388579
0	H	0.770911	0.191281	0.615753
0	H	0.58094	0.78865	0.347541
0	H	0.571302	0.224866	0.65665
0	H	0.538081	0.687834	0.439612
0	H	0.614696	0.325527	0.564674
0	N	0.248011	0.637693	0.505764
0	N	0.904707	0.375446	0.498572
0	H	0.245277	0.554159	0.545731
0	H	0.907356	0.459083	0.458694
0	C	0.218405	0.7477	0.537322
0	C	0.93419	0.265654	0.466803
0	O	0.191541	0.854918	0.494829
0	O	0.961292	0.158291	0.509092
0	O	0.238949	0.715254	0.624846
0	O	0.913216	0.298471	0.37931
0	C	0.249383	0.816711	0.662606
0	C	0.902832	0.197124	0.341439
0	H	0.227889	0.905705	0.612983
0	H	0.924389	0.108052	0.391001
0	H	0.375005	0.77847	0.682155
0	H	0.777206	0.235334	0.321905
0	C	0.129824	0.832947	0.736992
0	C	0.022375	0.180977	0.267045
0	C	0.149898	0.73336	0.808804
0	C	0.00237629	0.280615	0.195272
0	H	0.250047	0.643169	0.808867
0	H	0.902211	0.370782	0.19522
0	C	0.042266	0.749885	0.879499
0	C	0.110066	0.264145	0.1246
0	H	0.0572207	0.673045	0.935925
0	H	0.0951992	0.341015	0.0682058
0	C	0.914223	0.865999	0.878717
0	C	0.23805	0.148001	0.125362
0	H	0.831596	0.878138	0.934502
0	H	0.320689	0.135897	0.0695856
0	C	0.892773	0.96477	0.80671
0	C	0.259406	0.0491549	0.197315
0	H	0.791689	0.0545365	0.80534
0	H	0.360452	0.959378	0.198683
0	C	0.999914	0.948516	0.735686
0	C	0.152198	0.0653592	0.268314
0	H	0.981687	0.0249864	0.678871
0	H	0.170342	0.988796	0.325075
