#******************************************
#
# CIF file created by Zeo++
# Zeo++ is an open source package to
# analyze microporous materials
#
#*******************************************

_cell_length_a		10.8941(0)
_cell_length_b		24.4039(0)
_cell_length_c		12.2613(0)
_cell_angle_alpha		90(0)
_cell_angle_beta		90.2002(0)
_cell_angle_gamma		90(0)

_symmetry_space_group_name_H-M		'P1'
_symmetry_Int_Tables_number		1
_symmetry_cell_setting		Monoclinic

loop_
_symmetry_equiv_pos_as_xyz
'+x,+y,+z'

loop_
_atom_site_label
_atom_site_type_symbol
_atom_site_fract_x
_atom_site_fract_y
_atom_site_fract_z
0	S	0.998266	0.166539	0.843811
0	S	0.480065	0.665682	0.684023
0	S	0.982392	0.834512	0.18606
0	S	0.500342	0.335494	0.346647
0	N	0.346593	0.203399	0.845422
0	N	0.130213	0.69995	0.683095
0	N	0.634116	0.797681	0.184709
0	N	0.850206	0.301198	0.346823
0	N	0.275874	0.155085	0.0059666
0	N	0.20272	0.652068	0.522811
0	N	0.704849	0.845981	0.0241238
0	N	0.778128	0.349234	0.507058
0	O	0.212104	0.213191	0.70085
0	O	0.26473	0.710988	0.827253
0	O	0.768568	0.787956	0.329298
0	O	0.715313	0.289945	0.203006
0	N	0.199168	0.123812	0.941068
0	N	0.280353	0.621261	0.587757
0	N	0.781398	0.877315	0.0890702
0	N	0.700417	0.38	0.442115
0	O	0.0216912	0.071276	0.953929
0	O	0.46035	0.57055	0.573048
0	O	0.958981	0.92977	0.0761158
0	O	0.520419	0.43069	0.45688
0	N	0.449069	0.216824	0.0200154
0	N	0.0281947	0.712886	0.507944
0	N	0.531722	0.784231	0.0100591
0	N	0.952548	0.288374	0.521889
0	O	0.154565	0.0756838	0.0988698
0	O	0.325641	0.573988	0.429232
0	O	0.825672	0.925651	0.931463
0	O	0.655182	0.427273	0.60067
0	C	0.159295	0.143774	0.832239
0	C	0.320197	0.641784	0.696318
0	C	0.821398	0.857314	0.197834
0	C	0.660219	0.359331	0.333765
0	C	0.452324	0.228213	0.792459
0	C	0.0236844	0.724245	0.735772
0	C	0.528447	0.772755	0.237559
0	C	0.956562	0.276803	0.294058
0	C	0.353064	0.18996	0.960759
0	C	0.124471	0.686544	0.567662
0	C	0.627696	0.811086	0.0693328
0	C	0.856213	0.314686	0.462177
0	C	0.238835	0.19098	0.786115
0	C	0.238757	0.688458	0.742182
0	C	0.741875	0.810115	0.244003
0	C	0.74149	0.312593	0.287915
0	C	0.488525	0.189963	0.124522
0	C	0.990023	0.685912	0.403233
0	C	0.492252	0.811094	0.905564
0	C	0.990754	0.315354	0.626587
0	H	0.409724	0.18242	0.180448
0	H	0.0690993	0.678848	0.347463
0	H	0.571085	0.818866	0.849851
0	H	0.911627	0.32249	0.682296
0	H	0.551867	0.219035	0.167698
0	H	0.925979	0.714707	0.36016
0	H	0.429369	0.781944	0.862107
0	H	0.0546864	0.286553	0.669722
0	C	0.16167	0.0981435	0.748009
0	C	0.31913	0.596289	0.780968
0	C	0.819017	0.90295	0.282054
0	C	0.661016	0.404699	0.248843
0	C	0.44132	0.278285	0.737478
0	C	0.0341356	0.773096	0.795048
0	C	0.539562	0.722599	0.292229
0	C	0.945805	0.227896	0.23502
0	H	0.35265	0.298846	0.731089
0	H	0.123082	0.793069	0.805229
0	H	0.62831	0.702104	0.298632
0	H	0.856805	0.207977	0.225072
0	C	0.43108	0.27709	0.0329188
0	C	0.0443844	0.773272	0.495422
0	C	0.549484	0.72395	0.997252
0	C	0.936474	0.227983	0.534364
0	H	0.407288	0.296167	0.954089
0	H	0.0650598	0.79247	0.574823
0	H	0.574247	0.704908	0.0759037
0	H	0.916579	0.208761	0.454834
0	H	0.519592	0.294842	0.0604189
0	H	0.956064	0.790433	0.465821
0	H	0.460602	0.70622	0.970693
0	H	0.024544	0.210853	0.564589
0	H	0.359097	0.287955	0.0920584
0	H	0.117699	0.784632	0.437979
0	H	0.62069	0.713011	0.937436
0	H	0.862665	0.216566	0.591257
0	C	0.0836399	0.0993558	0.656781
0	C	0.401301	0.595919	0.869308
0	C	0.89759	0.901995	0.372913
0	C	0.578829	0.404791	0.160519
0	H	0.0182664	0.132743	0.644457
0	H	0.470615	0.627859	0.879357
0	H	0.96356	0.868817	0.384969
0	H	0.509603	0.372791	0.150802
0	C	0.113736	0.0891717	0.997668
0	C	0.367016	0.587606	0.530236
0	C	0.866794	0.911984	0.0324655
0	C	0.613788	0.413653	0.499712
0	C	0.502324	0.0868983	0.120877
0	C	0.979578	0.582774	0.407459
0	C	0.47716	0.914125	0.909684
0	C	0.00142456	0.418478	0.622432
0	H	0.409028	0.084958	0.152841
0	H	0.0733296	0.581369	0.376421
0	H	0.570522	0.916349	0.877949
0	H	0.907748	0.419913	0.653635
0	C	0.564753	0.200138	0.799581
0	C	0.910756	0.696937	0.724088
0	C	0.415926	0.800735	0.23047
0	C	0.0695948	0.304052	0.305467
0	H	0.571591	0.161393	0.843714
0	H	0.904149	0.659031	0.677092
0	H	0.409008	0.839555	0.186599
0	H	0.0764186	0.342006	0.352294
0	C	0.247647	0.0555358	0.758533
0	C	0.228954	0.555271	0.77352
0	C	0.732316	0.945291	0.271868
0	C	0.750973	0.445826	0.25595
0	H	0.310471	0.0543919	0.828216
0	H	0.16317	0.555366	0.705987
0	H	0.669103	0.946239	0.202438
0	H	0.816722	0.445986	0.323528
0	O	0.102601	0.258793	0.924107
0	O	0.37318	0.756376	0.599247
0	O	0.877724	0.742327	0.105821
0	O	0.60749	0.244724	0.430821
0	C	0.556648	0.137748	0.0988332
0	C	0.923217	0.63329	0.428488
0	C	0.423424	0.863114	0.931368
0	C	0.057623	0.367942	0.601267
0	C	0.090232	0.0578356	0.578366
0	C	0.394135	0.554515	0.947983
0	C	0.890756	0.943496	0.451354
0	C	0.585869	0.44599	0.0813884
0	H	0.0291293	0.058912	0.507797
0	H	0.458252	0.554427	0.0164576
0	H	0.952247	0.94261	0.521665
0	H	0.52178	0.445845	0.0129065
0	C	0.674648	0.140178	0.0535538
0	C	0.804387	0.635081	0.472142
0	C	0.305316	0.860334	0.976359
0	C	0.176325	0.366098	0.557352
0	H	0.715977	0.179832	0.0349083
0	H	0.761215	0.674495	0.489371
0	H	0.264467	0.820551	0.994765
0	H	0.219343	0.326663	0.540017
0	C	0.546478	0.300937	0.690569
0	C	0.928108	0.795417	0.841095
0	C	0.434382	0.699752	0.338695
0	C	0.0516596	0.20545	0.188898
0	H	0.541034	0.340116	0.647864
0	H	0.933301	0.833664	0.887066
0	H	0.439923	0.660484	0.381088
0	H	0.0462065	0.167168	0.143076
0	C	0.668473	0.223652	0.752596
0	C	0.806149	0.720179	0.77002
0	C	0.31218	0.777031	0.277021
0	C	0.174014	0.28068	0.259457
0	H	0.756887	0.202951	0.759497
0	H	0.717441	0.700146	0.759098
0	H	0.223674	0.797663	0.270068
0	H	0.262823	0.300664	0.270156
0	C	0.253754	0.0141973	0.679967
0	C	0.222375	0.514023	0.852213
0	C	0.725992	0.986614	0.350447
0	C	0.757447	0.486854	0.176807
0	H	0.320278	0.981087	0.689658
0	H	0.15252	0.482182	0.844766
0	H	0.658925	0.019516	0.341048
0	H	0.827202	0.518768	0.18391
0	C	0.0800385	0.0350395	0.159353
0	C	0.398791	0.532862	0.368624
0	C	0.900504	0.966102	0.870751
0	C	0.581594	0.468147	0.6615
0	H	0.0291863	0.00856531	0.101049
0	H	0.456962	0.509101	0.426187
0	H	0.951776	0.992503	0.928925
0	H	0.524457	0.492365	0.60388
0	H	0.153471	0.01137	0.200233
0	H	0.324879	0.50667	0.335297
0	H	0.827232	0.989906	0.829972
0	H	0.655379	0.493954	0.696237
0	C	0.738234	0.0917945	0.0311374
0	C	0.742253	0.586355	0.494839
0	C	0.241001	0.908517	0.998805
0	C	0.23851	0.4148	0.534534
0	H	0.829939	0.0934438	0.995082
0	H	0.649764	0.587578	0.52939
0	H	0.14922	0.9066	0.0346743
0	H	0.3309	0.413547	0.499778
0	C	0.659441	0.274123	0.69908
0	C	0.814674	0.769547	0.82753
0	C	0.321297	0.726445	0.330094
0	C	0.165202	0.231257	0.202198
0	H	0.741299	0.293029	0.664518
0	H	0.732095	0.788384	0.861075
0	H	0.239381	0.707356	0.364192
0	H	0.247638	0.212327	0.168591
0	C	0.566831	0.0386702	0.099134
0	C	0.916341	0.534225	0.429167
0	C	0.411917	0.962161	0.931425
0	C	0.0646942	0.467001	0.600591
0	H	0.524442	0.999126	0.116042
0	H	0.959992	0.494872	0.412861
0	H	0.453834	0.00183725	0.914777
0	H	0.0211512	0.506369	0.616969
0	C	0.174998	0.01523	0.589691
0	C	0.304953	0.513552	0.939765
0	C	0.805246	0.985826	0.440402
0	C	0.674924	0.487022	0.0892078
0	H	0.180323	0.983115	0.528156
0	H	0.299081	0.481586	0.00155538
0	H	0.799724	0.0179177	0.50196
0	H	0.680745	0.518801	0.0269923
0	C	0.68446	0.0410768	0.0541448
0	C	0.798413	0.535976	0.473674
0	C	0.294157	0.959398	0.97605
0	C	0.182492	0.465196	0.555832
0	H	0.733914	0.00339102	0.0361969
0	H	0.750823	0.497952	0.492639
0	H	0.244055	0.996918	0.993919
0	H	0.230116	0.503209	0.536804
0	O	0.894186	0.246839	0.927866
0	O	0.582228	0.745573	0.597811
0	O	0.0861749	0.754114	0.101969
0	O	0.398385	0.255386	0.432218
0	C	0.997177	0.0654184	0.237
0	C	0.471866	0.562396	0.28239
0	C	0.982822	0.935496	0.79299
0	C	0.506959	0.438268	0.74618
0	H	0.951713	0.0366254	0.292886
0	H	0.516547	0.532773	0.227713
0	H	0.0284506	0.964142	0.736942
0	H	0.461729	0.467649	0.801033
0	H	0.923728	0.0876272	0.193834
0	H	0.54539	0.58763	0.318094
0	H	0.0560827	0.913126	0.836082
0	H	0.433716	0.413396	0.709053
0	H	0.0481178	0.0954468	0.286041
0	H	0.413837	0.589515	0.232762
0	H	0.931405	0.905566	0.744117
0	H	0.563983	0.410741	0.795834
0	C	0.871515	0.298504	0.989194
0	C	0.605405	0.796614	0.534726
0	C	0.108412	0.70247	0.0405064
0	C	0.375319	0.204239	0.494982
0	H	0.83987	0.283143	0.0696762
0	H	0.637637	0.780457	0.455078
0	H	0.141204	0.717864	0.960417
0	H	0.344206	0.220191	0.575109
0	H	0.958246	0.321443	0.997469
0	H	0.518893	0.819562	0.525087
0	H	0.0212953	0.6799	0.0313355
0	H	0.461637	0.181037	0.503503
0	C	0.773101	0.328545	0.926533
0	C	0.703664	0.827005	0.596975
0	C	0.205567	0.671836	0.103627
0	C	0.275956	0.174321	0.433205
0	H	0.69596	0.300992	0.906394
0	H	0.779829	0.799354	0.619432
0	H	0.283166	0.698969	0.12454
0	H	0.199794	0.20222	0.412032
0	H	0.806357	0.345592	0.849333
0	H	0.66954	0.845207	0.672812
0	H	0.171036	0.654785	0.180454
0	H	0.308869	0.156425	0.356651
0	H	0.735575	0.362368	0.975434
0	H	0.742712	0.860023	0.546799
0	H	0.242694	0.637914	0.0547506
0	H	0.237286	0.141128	0.483127
0	C	0.0106911	0.233128	0.906268
0	C	0.465811	0.731578	0.618728
0	C	0.969745	0.767925	0.12366
0	C	0.514775	0.269483	0.411447
