#******************************************
#
# CIF file created by Zeo++
# Zeo++ is an open source package to
# analyze microporous materials
#
#*******************************************

_cell_length_a		13.7852(0)
_cell_length_b		28.7425(0)
_cell_length_c		23.2325(0)
_cell_angle_alpha		90(0)
_cell_angle_beta		90(0)
_cell_angle_gamma		90(0)

_symmetry_space_group_name_H-M		'P1'
_symmetry_Int_Tables_number		1
_symmetry_cell_setting		Monoclinic

loop_
_symmetry_equiv_pos_as_xyz
'+x,+y,+z'

loop_
_atom_site_label
_atom_site_type_symbol
_atom_site_fract_x
_atom_site_fract_y
_atom_site_fract_z
0	Br	0.504036	0.331237	0.0321473
0	Br	0.490982	0.660314	0.00256857
0	Br	0.972526	0.832676	0.343279
0	Br	0.993192	0.16359	0.358789
0	O	0.463389	0.426567	0.227267
0	O	0.513265	0.57509	0.206164
0	O	0.0165743	0.926461	0.147454
0	O	0.964002	0.0694569	0.162009
0	O	0.13353	0.393506	0.165196
0	O	0.850439	0.605392	0.158082
0	O	0.344616	0.893749	0.209018
0	O	0.625172	0.105719	0.224572
0	O	0.546281	0.352123	0.15661
0	O	0.42382	0.638502	0.122715
0	O	0.930466	0.853534	0.218775
0	O	0.0534156	0.137732	0.238495
0	O	0.103285	0.59374	0.125771
0	O	0.870089	0.403522	0.129179
0	O	0.376639	0.0936654	0.250193
0	O	0.601197	0.903225	0.246754
0	O	0.181683	0.627102	0.152981
0	O	0.787787	0.375608	0.161254
0	O	0.297121	0.124087	0.219934
0	O	0.683264	0.87635	0.213814
0	O	0.90951	0.380109	0.290293
0	O	0.0609064	0.620778	0.28955
0	O	0.570376	0.882605	0.0834876
0	O	0.414348	0.122123	0.0901136
0	O	0.877747	0.454989	0.266306
0	O	0.0940548	0.54544	0.269205
0	O	0.600972	0.957114	0.109577
0	O	0.382358	0.0466658	0.11049
0	N	0.0699751	0.45412	0.216629
0	N	0.907874	0.545528	0.213204
0	N	0.409566	0.954952	0.159217
0	N	0.570801	0.0470266	0.165566
0	H	0.074289	0.489361	0.226392
0	H	0.90276	0.510402	0.223532
0	H	0.405832	0.990408	0.150494
0	H	0.576025	0.0120248	0.154595
0	N	0.168355	0.516084	0.13774
0	N	0.813737	0.482957	0.133516
0	N	0.313358	0.01609	0.238824
0	N	0.660385	0.981839	0.242288
0	H	0.236077	0.520375	0.155224
0	H	0.746364	0.480991	0.152169
0	H	0.247342	0.0207998	0.219359
0	H	0.726422	0.978719	0.22223
0	C	0.440689	0.37444	0.0820399
0	C	0.549304	0.619947	0.0579967
0	C	0.037472	0.875088	0.293039
0	C	0.933461	0.120357	0.307379
0	C	0.474033	0.3814	0.138997
0	C	0.506818	0.61358	0.112743
0	C	0.00446054	0.882021	0.236056
0	C	0.972763	0.112237	0.252107
0	C	0.428184	0.416589	0.171656
0	C	0.553393	0.582439	0.151136
0	C	0.0515113	0.91671	0.203148
0	C	0.926098	0.0787171	0.217165
0	C	0.347259	0.440517	0.150314
0	C	0.639232	0.559709	0.135417
0	C	0.132676	0.940424	0.224553
0	C	0.842336	0.0556518	0.23598
0	H	0.31368	0.467227	0.177004
0	H	0.672267	0.535446	0.165686
0	H	0.166994	0.966898	0.197829
0	H	0.809223	0.0297161	0.207922
0	C	0.308305	0.429252	0.0966641
0	C	0.683615	0.568809	0.0826342
0	C	0.170915	0.929319	0.278443
0	C	0.800641	0.0665012	0.28904
0	C	0.358406	0.397235	0.0616601
0	C	0.636446	0.598435	0.0433677
0	C	0.120097	0.897595	0.313466
0	C	0.848561	0.0984078	0.325222
0	H	0.331539	0.389583	0.0184498
0	H	0.669073	0.605279	0.00138461
0	H	0.146558	0.890012	0.356786
0	H	0.818029	0.106592	0.367415
0	C	0.214086	0.448991	0.0749214
0	C	0.780795	0.549068	0.0661344
0	C	0.264736	0.949147	0.300651
0	C	0.706352	0.0458965	0.309416
0	H	0.230468	0.476312	0.0423009
0	H	0.769293	0.521759	0.0327888
0	H	0.247525	0.976925	0.332562
0	H	0.723015	0.0169908	0.339827
0	H	0.175557	0.420729	0.0509529
0	H	0.822793	0.577438	0.0445069
0	H	0.302491	0.921246	0.325617
0	H	0.667838	0.0728336	0.335571
0	C	0.140156	0.468788	0.118431
0	C	0.847673	0.529099	0.113324
0	C	0.339842	0.968463	0.257543
0	C	0.632472	0.0282485	0.264514
0	H	0.0679714	0.471335	0.0950288
0	H	0.92218	0.524712	0.0931954
0	H	0.411943	0.970239	0.28118
0	H	0.559909	0.0249689	0.287298
0	C	0.119193	0.435145	0.169259
0	C	0.864066	0.563818	0.163629
0	C	0.360014	0.935352	0.206104
0	C	0.613538	0.0643419	0.215992
0	C	0.046389	0.423663	0.265972
0	C	0.9257	0.576681	0.26273
0	C	0.43294	0.925416	0.109043
0	C	0.550297	0.0783239	0.116643
0	H	0.0698852	0.386679	0.255579
0	H	0.903455	0.61353	0.25067
0	H	0.409495	0.888261	0.118382
0	H	0.573731	0.115	0.128123
0	C	0.0948164	0.43955	0.322772
0	C	0.870065	0.561424	0.317398
0	C	0.384857	0.942458	0.0526341
0	C	0.600392	0.0625903	0.0601675
0	H	0.0726445	0.475657	0.333742
0	H	0.890225	0.525327	0.329748
0	H	0.406507	0.978894	0.0430892
0	H	0.576817	0.0268612	0.0482704
0	H	0.069788	0.417327	0.358879
0	H	0.890764	0.583813	0.354287
0	H	0.410579	0.921193	0.0158238
0	H	0.577767	0.0854955	0.0241513
0	C	0.202712	0.436172	0.314522
0	C	0.763423	0.565052	0.3043
0	C	0.276991	0.938453	0.0604933
0	C	0.708049	0.0645067	0.0697611
0	C	0.245041	0.392019	0.307097
0	C	0.722684	0.609238	0.294497
0	C	0.235999	0.893959	0.0674724
0	C	0.75212	0.108009	0.0790906
0	H	0.204845	0.360635	0.318391
0	H	0.76181	0.640595	0.307155
0	H	0.277241	0.862947	0.0559319
0	H	0.713996	0.140013	0.0679809
0	C	0.336075	0.388235	0.281541
0	C	0.63498	0.61314	0.265082
0	C	0.145107	0.889386	0.0929867
0	C	0.84208	0.11023	0.106224
0	H	0.367168	0.354416	0.270997
0	H	0.605786	0.647044	0.253118
0	H	0.115156	0.855294	0.103303
0	H	0.874421	0.143484	0.118049
0	C	0.383449	0.429414	0.265878
0	C	0.588801	0.572062	0.247852
0	C	0.0965309	0.930156	0.10899
0	C	0.886399	0.0682088	0.121641
0	C	0.350438	0.473554	0.281793
0	C	0.619027	0.527971	0.26594
0	C	0.128205	0.974624	0.0935128
0	C	0.852359	0.0247838	0.103607
0	H	0.393724	0.504407	0.272723
0	H	0.576192	0.497106	0.255758
0	H	0.0839564	0.00509609	0.103034
0	H	0.89386	0.993265	0.112459
0	C	0.257997	0.476612	0.306125
0	C	0.708328	0.524795	0.294135
0	C	0.220531	0.978471	0.0691933
0	C	0.761184	0.0233021	0.0774761
0	H	0.226701	0.510744	0.315539
0	H	0.737605	0.490622	0.305448
0	H	0.250852	0.0128588	0.0601241
0	H	0.728961	0.989728	0.0661524
0	C	0.576407	0.35426	0.216595
0	C	0.393796	0.641918	0.182864
0	C	0.902775	0.854395	0.158348
0	C	0.0807726	0.139658	0.177917
0	H	0.632812	0.327192	0.217695
0	H	0.332873	0.666433	0.180601
0	H	0.844574	0.828211	0.15765
0	H	0.142375	0.163947	0.17896
0	H	0.515264	0.345818	0.244666
0	H	0.452902	0.655547	0.209266
0	H	0.964367	0.84415	0.131547
0	H	0.0206091	0.153123	0.152206
0	H	0.606574	0.388671	0.226082
0	H	0.368974	0.607823	0.197926
0	H	0.875544	0.888965	0.146829
0	H	0.103835	0.105132	0.163357
0	C	0.112111	0.552085	0.1239
0	C	0.866804	0.44517	0.122997
0	C	0.369982	0.0518083	0.253229
0	C	0.605012	0.944941	0.253487
0	C	0.186912	0.666069	0.115042
0	C	0.765902	0.336387	0.126195
0	C	0.282077	0.163178	0.256654
0	C	0.707613	0.837097	0.248273
0	H	0.127861	0.663956	0.082829
0	H	0.810013	0.337423	0.0863716
0	H	0.33332	0.161817	0.293337
0	H	0.666337	0.83804	0.289163
0	H	0.2575	0.663184	0.0922045
0	H	0.68812	0.340462	0.114115
0	H	0.207013	0.15953	0.273654
0	H	0.786139	0.841268	0.25846
0	C	0.179138	0.710424	0.149702
0	C	0.783877	0.291551	0.158484
0	C	0.295613	0.207511	0.222695
0	C	0.687243	0.792446	0.216203
0	C	0.254598	0.743189	0.147941
0	C	0.711336	0.257264	0.159329
0	C	0.221403	0.240925	0.22212
0	C	0.758215	0.757444	0.214914
0	H	0.318768	0.73668	0.121791
0	H	0.642379	0.263501	0.137707
0	H	0.154455	0.234778	0.245814
0	H	0.827793	0.76292	0.236113
0	C	0.247818	0.784189	0.180009
0	C	0.727068	0.215274	0.188161
0	C	0.233101	0.282083	0.190903
0	C	0.740007	0.715638	0.186204
0	H	0.306476	0.809747	0.179318
0	H	0.670601	0.188618	0.189392
0	H	0.175647	0.308252	0.19003
0	H	0.795133	0.688334	0.184782
0	C	0.165618	0.792692	0.213637
0	C	0.815256	0.207304	0.216237
0	C	0.318747	0.28991	0.160199
0	C	0.65102	0.708673	0.158633
0	H	0.161432	0.82453	0.23894
0	H	0.82675	0.174673	0.239091
0	H	0.326658	0.321766	0.135325
0	H	0.637654	0.676252	0.135731
0	C	0.0898297	0.760378	0.214968
0	C	0.887709	0.241352	0.215426
0	C	0.393274	0.256918	0.161157
0	C	0.580094	0.743443	0.159916
0	H	0.0252406	0.767551	0.240606
0	H	0.956364	0.234946	0.23733
0	H	0.460403	0.263642	0.13773
0	H	0.510817	0.737787	0.138412
0	C	0.0966424	0.719164	0.18329
0	C	0.872147	0.283447	0.186695
0	C	0.381746	0.21565	0.192231
0	C	0.59808	0.78533	0.18858
0	H	0.0383572	0.693538	0.184665
0	H	0.928074	0.310288	0.186261
0	H	0.439049	0.189487	0.192733
0	H	0.543422	0.812768	0.189438
0	C	0.935514	0.423503	0.27308
0	C	0.0357461	0.576996	0.273434
0	C	0.543695	0.92554	0.101983
0	C	0.439974	0.078581	0.106796
0	C	0.806711	0.368359	0.29265
0	C	0.163537	0.632615	0.293938
0	C	0.673395	0.871367	0.0811596
0	C	0.311491	0.1329	0.0840453
0	H	0.806364	0.331623	0.27924
0	H	0.167871	0.666306	0.271478
0	H	0.675558	0.835609	0.0980835
0	H	0.305232	0.167146	0.104965
0	H	0.765279	0.389488	0.261863
0	H	0.20908	0.606736	0.272324
0	H	0.715338	0.894711	0.109044
0	H	0.266589	0.107169	0.106456
0	H	0.782761	0.373124	0.337014
0	H	0.179765	0.635475	0.3398
0	H	0.695242	0.873532	0.0360912
0	H	0.296502	0.134219	0.0379386
