#******************************************
#
# CIF file created by Zeo++
# Zeo++ is an open source package to
# analyze microporous materials
#
#*******************************************

_cell_length_a		19.1089(0)
_cell_length_b		18.3669(0)
_cell_length_c		5.63249(0)
_cell_angle_alpha		90(0)
_cell_angle_beta		90(0)
_cell_angle_gamma		121.322(0)

_symmetry_space_group_name_H-M		'P1'
_symmetry_Int_Tables_number		1
_symmetry_cell_setting		Monoclinic

loop_
_symmetry_equiv_pos_as_xyz
'+x,+y,+z'

loop_
_atom_site_label
_atom_site_type_symbol
_atom_site_fract_x
_atom_site_fract_y
_atom_site_fract_z
0	O	0.891488	0.408453	0.342207
0	O	0.594288	0.51666	0.619072
0	O	0.492192	0.094671	0.974626
0	O	0.084051	0.599621	0.800931
0	O	0.385419	0.490593	0.117742
0	O	0.486366	0.912323	0.477105
0	O	0.888828	0.376394	0.963385
0	O	0.648494	0.570836	0.264151
0	O	0.481378	0.108666	0.589716
0	O	0.0890184	0.646056	0.43125
0	O	0.33193	0.436328	0.761345
0	O	0.499967	0.898539	0.0923167
0	O	0.657027	0.10447	0.162807
0	O	0.881478	0.576248	0.484211
0	O	0.439798	0.338675	0.829706
0	O	0.323296	0.900119	0.652941
0	O	0.0973063	0.432552	0.992458
0	O	0.543114	0.670868	0.336681
0	O	0.757237	0.330627	0.593318
0	O	0.655806	0.449699	0.894439
0	O	0.550516	0.234049	0.242298
0	O	0.214487	0.667518	0.0697904
0	O	0.319948	0.55296	0.398149
0	O	0.430439	0.773636	0.748243
0	N	0.734076	0.236389	0.992162
0	N	0.755823	0.513193	0.303051
0	N	0.480813	0.256129	0.641959
0	N	0.251097	0.769196	0.473252
0	N	0.221674	0.490023	0.805294
0	N	0.497874	0.749948	0.149211
0	N	0.570549	0.0256673	0.774206
0	N	0.961955	0.564126	0.115304
0	N	0.437915	0.422457	0.449353
0	N	0.413434	0.983274	0.271351
0	N	0.0148233	0.437945	0.621201
0	N	0.5433	0.586499	0.951481
0	C	0.680367	0.150071	0.984561
0	C	0.839809	0.550514	0.302777
0	C	0.455242	0.313314	0.646036
0	C	0.302367	0.856334	0.471723
0	C	0.13816	0.455143	0.808985
0	C	0.526501	0.695287	0.153454
0	C	0.857992	0.359208	0.164125
0	C	0.648634	0.538912	0.457427
0	C	0.484034	0.132477	0.798551
0	C	0.118866	0.652259	0.630238
0	C	0.331122	0.467209	0.955768
0	C	0.495169	0.874635	0.301948
0	C	0.649905	0.11029	0.73807
0	C	0.880955	0.557696	0.0632079
0	C	0.445215	0.345268	0.403798
0	C	0.334963	0.898301	0.228858
0	C	0.0962936	0.445723	0.569101
0	C	0.537215	0.664602	0.910069
0	C	0.775276	0.277376	0.216763
0	C	0.716762	0.520568	0.520459
0	C	0.481755	0.213053	0.86154
0	C	0.205529	0.727395	0.69246
0	C	0.261472	0.483085	0.0214144
0	C	0.496894	0.793731	0.366839
0	C	0.719233	0.295813	0.368378
0	C	0.68372	0.438547	0.668154
0	C	0.556447	0.272898	0.0165452
0	C	0.254158	0.698997	0.844481
0	C	0.292935	0.564489	0.170862
0	C	0.422345	0.734132	0.521964
0	C	0.752795	0.0568752	0.745923
0	C	0.924211	0.719187	0.0458508
0	C	0.28847	0.232822	0.39914
0	C	0.228694	0.947682	0.222515
0	C	0.0576412	0.285961	0.562411
0	C	0.694596	0.776052	0.905444
0	C	0.79183	0.0248223	0.568619
0	C	0.953232	0.789383	0.856476
0	C	0.218975	0.195229	0.215451
0	C	0.191087	0.97913	0.0382395
0	C	0.0281491	0.213599	0.379984
0	C	0.763581	0.812674	0.720054
0	H	0.815404	0.988922	0.659369
0	H	0.982149	0.852602	0.938118
0	H	0.158913	0.163743	0.302108
0	H	0.163207	0.0115082	0.124166
0	H	0.00282624	0.151686	0.467748
0	H	0.823615	0.839501	0.804974
0	H	0.843268	0.0777648	0.473943
0	H	0.902031	0.781247	0.747427
0	H	0.221081	0.147895	0.102082
0	H	0.143031	0.92608	0.934555
0	H	0.0785257	0.222436	0.265503
0	H	0.764466	0.863519	0.615206
0	H	0.74762	0.982251	0.435623
0	H	0.998008	0.789177	0.735303
0	H	0.222317	0.244795	0.0991686
0	H	0.237048	0.0241517	0.91268
0	H	0.980428	0.209836	0.26388
0	H	0.756995	0.763712	0.595084
0	C	0.714361	0.100031	0.607693
0	C	0.891155	0.633007	0.918935
0	C	0.371307	0.276049	0.267579
0	C	0.271393	0.907769	0.0909351
0	C	0.088043	0.370476	0.428274
0	C	0.611473	0.734165	0.775906
0	C	0.817091	0.116745	0.92719
0	C	0.859836	0.719782	0.207177
0	C	0.278996	0.163485	0.571512
0	C	0.162491	0.885056	0.394958
0	C	0.123667	0.287951	0.722381
0	C	0.705911	0.846437	0.0765166
0	H	0.860041	0.0961006	0.970482
0	H	0.870638	0.784089	0.228805
0	H	0.214341	0.117309	0.609441
0	H	0.116285	0.902093	0.428403
0	H	0.116502	0.224945	0.737592
0	H	0.770206	0.887039	0.128917
0	H	0.788604	0.117912	0.0951368
0	H	0.860808	0.696423	0.385571
0	H	0.308644	0.191091	0.742231
0	H	0.188784	0.884764	0.567832
0	H	0.120665	0.308227	0.903185
0	H	0.670545	0.819544	0.24008
0	H	0.853509	0.182375	0.86184
0	H	0.797166	0.679904	0.138021
0	H	0.305511	0.127393	0.501199
0	H	0.129849	0.81943	0.327625
0	H	0.186254	0.331046	0.656011
0	H	0.686904	0.887967	0.996835
0	H	0.569759	0.975978	0.682756
0	H	0.993292	0.604436	0.260415
0	H	0.396866	0.411787	0.591146
0	H	0.40955	0.0347424	0.21454
0	H	0.978444	0.387975	0.73605
0	H	0.585804	0.596575	0.0883578
0	H	0.788512	0.23327	0.322753
0	H	0.763643	0.575833	0.634314
0	H	0.424566	0.193343	0.968758
0	H	0.197144	0.774001	0.803687
0	H	0.215522	0.427182	0.134691
0	H	0.553898	0.813794	0.475306
0	H	0.520905	0.0304661	0.714857
0	H	0.00026421	0.584734	0.964601
0	H	0.417212	0.438089	0.294412
0	H	0.461746	0.984867	0.178616
0	H	0.981809	0.430257	0.463415
0	H	0.561389	0.569442	0.793674
0	H	0.686356	0.0643221	0.437416
0	H	0.931237	0.642452	0.761599
0	H	0.366201	0.304242	0.0951707
0	H	0.301527	0.945626	0.925174
0	H	0.047813	0.359036	0.269822
0	H	0.616105	0.706465	0.601969
0	H	0.63498	0.151985	0.625592
0	H	0.842943	0.497578	0.955497
0	H	0.502002	0.366673	0.292487
0	H	0.352129	0.858137	0.118758
0	H	0.133358	0.505501	0.459137
0	H	0.480814	0.644372	0.797843
0	H	0.705467	0.341063	0.281977
0	H	0.632658	0.382633	0.578128
0	H	0.615075	0.288307	0.933407
0	H	0.26025	0.648594	0.757841
0	H	0.344387	0.620994	0.0843196
0	H	0.363597	0.719516	0.441515
0	H	0.763254	0.163997	0.542084
0	H	0.830698	0.613277	0.834398
0	H	0.385442	0.227371	0.206183
0	H	0.2247	0.843939	0.0180831
0	H	0.148745	0.391372	0.343419
0	H	0.598127	0.783696	0.71796
0	H	0.660689	0.236415	0.414087
0	H	0.7322	0.424531	0.711953
0	H	0.558677	0.33315	0.0597131
0	H	0.316094	0.753227	0.890009
0	H	0.243728	0.577717	0.21163
0	H	0.419239	0.673433	0.563264
0	H	0.703206	0.00065446	0.844421
0	H	0.978073	0.732541	0.157223
0	H	0.283803	0.281876	0.504613
0	H	0.275543	0.00387899	0.326904
0	H	0.00442109	0.272879	0.676464
0	H	0.698307	0.726439	0.0109183
0	H	0.559186	0.00762046	0.955136
0	H	0.950999	0.503617	0.166394
0	H	0.495814	0.475001	0.499544
0	H	0.430511	0.993016	0.451734
0	H	0.0249513	0.494642	0.706255
0	H	0.485487	0.535011	0.00610134
0	H	0.81794	0.374979	0.567895
0	H	0.618432	0.47289	0.864288
0	H	0.531513	0.17142	0.219387
0	H	0.153321	0.627655	0.041023
0	H	0.357737	0.53029	0.368645
0	H	0.449229	0.836253	0.724662
0	H	0.754563	0.275025	0.838478
0	H	0.721416	0.498687	0.145206
0	H	0.496414	0.236409	0.484209
0	H	0.229402	0.732954	0.315633
0	H	0.255176	0.503383	0.645798
0	H	0.482231	0.769286	0.990877
