#******************************************
#
# CIF file created by Zeo++
# Zeo++ is an open source package to
# analyze microporous materials
#
#*******************************************

_cell_length_a		27.8443(0)
_cell_length_b		14.4731(0)
_cell_length_c		12.2689(0)
_cell_angle_alpha		90(0)
_cell_angle_beta		119.249(0)
_cell_angle_gamma		90(0)

_symmetry_space_group_name_H-M		'P1'
_symmetry_Int_Tables_number		1
_symmetry_cell_setting		Monoclinic

loop_
_symmetry_equiv_pos_as_xyz
'+x,+y,+z'

loop_
_atom_site_label
_atom_site_type_symbol
_atom_site_fract_x
_atom_site_fract_y
_atom_site_fract_z
0	O	0.628815	0.304844	0.832987
0	O	0.344985	0.204428	0.22089
0	O	0.132296	0.756747	0.813333
0	O	0.857434	0.783755	0.21364
0	H	0.65259	0.348247	0.811646
0	H	0.323488	0.245105	0.249602
0	H	0.156026	0.800056	0.792098
0	H	0.83521	0.82883	0.237018
0	O	0.365474	0.17313	0.667006
0	O	0.61799	0.19313	0.395894
0	O	0.86393	0.692089	0.649532
0	O	0.120313	0.674317	0.371474
0	H	0.361505	0.201766	0.737279
0	H	0.624862	0.224416	0.330823
0	H	0.858113	0.723468	0.715775
0	H	0.127767	0.705765	0.307632
0	C	0.613202	0.227436	0.747065
0	C	0.36676	0.123998	0.297896
0	C	0.110498	0.684731	0.720171
0	C	0.873898	0.706338	0.298622
0	H	0.605227	0.259493	0.655806
0	H	0.368883	0.139652	0.390079
0	H	0.104376	0.718142	0.631567
0	H	0.881465	0.736415	0.390132
0	C	0.660614	0.158211	0.788576
0	C	0.32835	0.0411578	0.237757
0	C	0.151414	0.604825	0.753668
0	C	0.828016	0.634119	0.255877
0	H	0.658206	0.125796	0.703974
0	H	0.338027	0.987327	0.309714
0	H	0.140425	0.56485	0.666855
0	H	0.834473	0.593197	0.338615
0	H	0.700437	0.197242	0.831376
0	H	0.285119	0.0624887	0.206286
0	H	0.193202	0.632984	0.782674
0	H	0.787906	0.670252	0.224824
0	C	0.663421	0.0829442	0.87885
0	C	0.332624	0.000862394	0.127821
0	C	0.15318	0.540786	0.854447
0	C	0.823661	0.569246	0.153216
0	H	0.682198	0.111568	0.975455
0	H	0.314794	0.0504941	0.0485912
0	H	0.174673	0.576292	0.946799
0	H	0.803765	0.606048	0.0618125
0	H	0.692216	0.0276096	0.882903
0	H	0.306787	0.9374	0.0931034
0	H	0.178873	0.479519	0.863287
0	H	0.795333	0.511241	0.14315
0	C	0.607036	0.039494	0.842121
0	C	0.392567	0.977927	0.163062
0	C	0.0954871	0.508739	0.82743
0	C	0.87958	0.528889	0.179347
0	H	0.591045	0.00713897	0.747866
0	H	0.409698	0.929506	0.244448
0	H	0.0762305	0.470014	0.737015
0	H	0.896221	0.487114	0.267091
0	C	0.565025	0.115508	0.831408
0	C	0.428389	0.0676945	0.20463
0	C	0.0574152	0.593218	0.811371
0	C	0.922081	0.607424	0.201864
0	C	0.507746	0.0701011	0.787712
0	C	0.489806	0.0439844	0.249672
0	C	0.998016	0.5595	0.772696
0	C	0.979274	0.564118	0.23831
0	H	0.496971	0.0263696	0.704949
0	H	0.50363	0.989229	0.321452
0	H	0.983844	0.511759	0.69258
0	H	0.990096	0.512839	0.313564
0	H	0.510491	0.0230739	0.861577
0	H	0.493377	0.0146845	0.170641
0	H	0.998884	0.518974	0.849973
0	H	0.976359	0.525543	0.157536
0	C	0.46207	0.141686	0.756602
0	C	0.527393	0.129145	0.301945
0	C	0.957077	0.640187	0.739196
0	C	0.0250162	0.63735	0.280637
0	H	0.47171	0.179937	0.844593
0	H	0.515408	0.179906	0.224003
0	H	0.970035	0.683132	0.824882
0	H	0.0149463	0.684712	0.200121
0	C	0.459993	0.213026	0.661552
0	C	0.520404	0.177096	0.405465
0	C	0.957543	0.701908	0.637622
0	C	0.0275274	0.695334	0.388236
0	H	0.446065	0.179798	0.569299
0	H	0.539346	0.134288	0.492064
0	H	0.940112	0.662829	0.548435
0	H	0.0400055	0.650675	0.47135
0	H	0.428284	0.265917	0.646411
0	H	0.543945	0.242783	0.430829
0	H	0.929593	0.761835	0.619257
0	H	0.06027	0.748889	0.416826
0	C	0.515941	0.258591	0.704686
0	C	0.460166	0.19562	0.366866
0	C	0.0153467	0.735305	0.673539
0	C	0.972153	0.740446	0.351954
0	H	0.528978	0.299911	0.790598
0	H	0.442427	0.249364	0.293131
0	H	0.0317282	0.782235	0.755255
0	H	0.959967	0.789999	0.274064
0	H	0.513146	0.3083	0.633264
0	H	0.457205	0.22392	0.447483
0	H	0.0135699	0.776491	0.59514
0	H	0.975399	0.781435	0.431876
0	C	0.559193	0.184126	0.727822
0	C	0.425587	0.107124	0.319686
0	C	0.0543142	0.65273	0.702226
0	C	0.928019	0.665227	0.315039
0	H	0.54365	0.142455	0.638959
0	H	0.444086	0.0537671	0.395455
0	H	0.0365171	0.607277	0.616882
0	H	0.942364	0.616121	0.396215
0	C	0.613475	0.96292	0.934531
0	C	0.393422	0.928445	0.0538426
0	C	0.101543	0.441837	0.930158
0	C	0.871115	0.463589	0.0731434
0	H	0.573997	0.930227	0.909832
0	H	0.435185	0.923929	0.0668384
0	H	0.062053	0.411318	0.90955
0	H	0.910059	0.434191	0.0878432
0	H	0.630593	0.989432	0.0300299
0	H	0.367867	0.963974	0.964991
0	H	0.118613	0.476081	0.0212951
0	H	0.851855	0.498752	0.982459
0	H	0.641256	0.907968	0.936273
0	H	0.377351	0.857608	0.0431451
0	H	0.129795	0.384753	0.940628
0	H	0.844079	0.405328	0.0655441
0	C	0.584617	0.164202	0.956892
0	C	0.407436	0.136956	0.0965761
0	C	0.0801107	0.648625	0.93277
0	C	0.902858	0.666975	0.0847934
0	H	0.622411	0.204396	0.982697
0	H	0.36565	0.161116	0.0715829
0	H	0.121796	0.674793	0.960457
0	H	0.863602	0.701722	0.0609171
0	H	0.593387	0.115529	0.0327889
0	H	0.406061	0.107377	0.0126177
0	H	0.0824355	0.6074	0.0102371
0	H	0.896829	0.626547	0.00334321
0	H	0.553833	0.213795	0.953005
0	H	0.433355	0.199295	0.121435
0	H	0.0547101	0.709845	0.922348
0	H	0.932496	0.722302	0.0989459
0	C	0.40412	0.0969161	0.707345
0	C	0.589308	0.105382	0.352016
0	C	0.896715	0.608247	0.693778
0	C	0.083103	0.596043	0.321356
0	C	0.385099	0.0392201	0.58888
0	C	0.613684	0.0426649	0.466979
0	C	0.873482	0.545102	0.579288
0	C	0.103593	0.527436	0.429702
0	H	0.376701	0.0845058	0.508966
0	H	0.597024	0.0591055	0.529592
0	H	0.88383	0.570297	0.50865
0	H	0.110607	0.561143	0.516992
0	H	0.346949	0.00188454	0.564531
0	H	0.658661	0.0509887	0.522204
0	H	0.828308	0.542197	0.533617
0	H	0.14303	0.496695	0.449424
0	H	0.4163	0.988725	0.599093
0	H	0.605011	0.9698	0.441075
0	H	0.889136	0.474543	0.604281
0	H	0.0741425	0.471213	0.409604
0	C	0.399902	0.042762	0.809282
0	C	0.600561	0.0675096	0.250257
0	C	0.889158	0.565897	0.798474
0	C	0.0871152	0.554411	0.211621
0	H	0.411586	0.0849107	0.893726
0	H	0.587145	0.115544	0.171005
0	H	0.900158	0.614371	0.87667
0	H	0.0762728	0.604313	0.135135
0	H	0.426584	0.981816	0.83816
0	H	0.57933	0.00179779	0.212763
0	H	0.914636	0.504107	0.837297
0	H	0.0595969	0.494958	0.172004
0	H	0.357577	0.0191837	0.776608
0	H	0.644713	0.0555498	0.286692
0	H	0.846134	0.545844	0.76446
0	H	0.129144	0.530753	0.240775
0	O	0.210365	0.68789	0.607458
0	O	0.776223	0.720199	0.411569
0	O	0.709088	0.224691	0.626496
0	O	0.271289	0.225867	0.461221
0	H	0.17483	0.676517	0.526971
0	H	0.810702	0.704013	0.492236
0	H	0.673935	0.207343	0.547669
0	H	0.303935	0.189873	0.524977
0	O	0.346395	0.27914	0.828214
0	O	0.642708	0.301352	0.241146
0	O	0.842421	0.806899	0.801467
0	O	0.147636	0.787381	0.228416
0	H	0.331103	0.262185	0.885584
0	H	0.659904	0.286057	0.18682
0	H	0.826018	0.791941	0.857481
0	H	0.162515	0.767366	0.171427
0	C	0.255072	0.686702	0.578491
0	C	0.730722	0.724214	0.437752
0	C	0.753478	0.227983	0.5966
0	C	0.22311	0.205337	0.471914
0	H	0.235501	0.676395	0.475075
0	H	0.749548	0.722141	0.541811
0	H	0.733565	0.225029	0.492386
0	H	0.237754	0.193136	0.574111
0	C	0.283901	0.781068	0.61285
0	C	0.701183	0.816877	0.388989
0	C	0.783007	0.321052	0.642785
0	C	0.18789	0.293376	0.428576
0	H	0.252083	0.835991	0.581692
0	H	0.732554	0.872123	0.414653
0	H	0.751633	0.376174	0.618215
0	H	0.215077	0.353732	0.473809
0	H	0.305713	0.791151	0.558617
0	H	0.677981	0.833525	0.438461
0	H	0.805223	0.337314	0.590961
0	H	0.157765	0.292153	0.462769
0	C	0.3245	0.793361	0.752181
0	C	0.662424	0.818848	0.247715
0	C	0.822974	0.324292	0.783441
0	C	0.158253	0.305634	0.286668
0	H	0.301472	0.801881	0.804079
0	H	0.687007	0.820013	0.198812
0	H	0.799266	0.32606	0.834418
0	H	0.188808	0.320126	0.255357
0	H	0.347803	0.858334	0.766604
0	H	0.638795	0.88417	0.222017
0	H	0.846505	0.389723	0.807135
0	H	0.131303	0.367157	0.260443
0	C	0.364688	0.711262	0.805369
0	C	0.622641	0.735855	0.202839
0	C	0.862885	0.241468	0.827794
0	C	0.124071	0.219522	0.219387
0	H	0.386496	0.704118	0.749628
0	H	0.598715	0.736626	0.254185
0	H	0.885882	0.241666	0.774304
0	H	0.0942122	0.206958	0.254142
0	C	0.331902	0.619888	0.788993
0	C	0.655956	0.643376	0.235756
0	C	0.829768	0.148899	0.797698
0	C	0.161831	0.132106	0.252591
0	C	0.372542	0.537026	0.839374
0	C	0.615917	0.559746	0.197194
0	C	0.869942	0.0653812	0.837653
0	C	0.12487	0.0461748	0.192737
0	H	0.400345	0.545647	0.940874
0	H	0.588262	0.560892	0.0949276
0	H	0.897702	0.0676971	0.939845
0	H	0.104456	0.0526135	0.0897559
0	H	0.399142	0.53662	0.795797
0	H	0.589158	0.565796	0.240029
0	H	0.896602	0.0706982	0.794546
0	H	0.0914083	0.0455205	0.217044
0	C	0.341342	0.444935	0.813783
0	C	0.647449	0.467624	0.235558
0	C	0.838433	0.973241	0.801457
0	C	0.156249	0.95397	0.232075
0	H	0.31462	0.44812	0.859014
0	H	0.672381	0.461831	0.186073
0	H	0.812814	0.969363	0.849411
0	H	0.183383	0.948941	0.188401
0	C	0.303071	0.431733	0.672701
0	C	0.687772	0.464222	0.376681
0	C	0.798841	0.968525	0.660054
0	C	0.193389	0.945884	0.374271
0	H	0.28002	0.365871	0.657132
0	H	0.713069	0.400651	0.397218
0	H	0.774213	0.904146	0.639218
0	H	0.22046	0.884819	0.393571
0	H	0.327392	0.423077	0.623964
0	H	0.664672	0.456439	0.428976
0	H	0.822587	0.961663	0.609215
0	H	0.167941	0.93013	0.419238
0	C	0.26315	0.513262	0.616825
0	C	0.725024	0.54939	0.424521
0	C	0.760804	0.0527598	0.610651
0	C	0.227969	0.0324253	0.435142
0	H	0.234081	0.515348	0.654141
0	H	0.756436	0.547838	0.393683
0	H	0.729077	0.050547	0.640624
0	H	0.260548	0.0403981	0.408928
0	H	0.237654	0.504306	0.514475
0	H	0.748081	0.547865	0.528655
0	H	0.738023	0.0501085	0.50647
0	H	0.249673	0.0244373	0.538641
0	C	0.29448	0.605429	0.645492
0	C	0.692316	0.640056	0.380793
0	C	0.79259	0.144401	0.652933
0	C	0.191485	0.119152	0.397122
0	H	0.322622	0.601867	0.604187
0	H	0.663344	0.642093	0.41993
0	H	0.820954	0.147318	0.612171
0	H	0.158506	0.107263	0.423213
0	C	0.408358	0.730186	0.940956
0	C	0.581496	0.745389	0.063151
0	C	0.905057	0.252354	0.96658
0	C	0.0907753	0.237613	0.0785504
0	H	0.434069	0.669342	0.98485
0	H	0.550455	0.690454	0.0310185
0	H	0.935472	0.19644	0.999203
0	H	0.0649131	0.178327	0.0284081
0	H	0.389599	0.750025	0.998339
0	H	0.60208	0.741249	0.00652259
0	H	0.885307	0.251397	0.0250267
0	H	0.117623	0.251576	0.0383939
0	H	0.435727	0.786474	0.946294
0	H	0.559677	0.8115	0.0425124
0	H	0.927554	0.317639	0.98411
0	H	0.063622	0.297421	0.0584215
0	C	0.298752	0.62453	0.858521
0	C	0.690014	0.637159	0.168587
0	C	0.796231	0.144071	0.866168
0	C	0.203443	0.14215	0.205735
0	H	0.284848	0.55559	0.868697
0	H	0.704736	0.566407	0.170486
0	H	0.777018	0.0759376	0.855044
0	H	0.226736	0.0781962	0.217053
0	H	0.261378	0.666862	0.807183
0	H	0.726934	0.681588	0.214026
0	H	0.762426	0.195017	0.828006
0	H	0.234018	0.196214	0.259482
0	H	0.322969	0.653338	0.952461
0	H	0.666037	0.657723	0.0704221
0	H	0.821916	0.156836	0.966385
0	H	0.183686	0.161213	0.106372
0	C	0.380773	0.361324	0.873197
0	C	0.607849	0.383017	0.193539
0	C	0.877691	0.888136	0.84772
0	C	0.114989	0.871108	0.180766
0	C	0.42301	0.349402	0.829194
0	C	0.570775	0.377665	0.252899
0	C	0.915664	0.879605	0.791153
0	C	0.0746212	0.866515	0.231457
0	H	0.40285	0.32997	0.729395
0	H	0.592404	0.343538	0.344873
0	H	0.892865	0.853233	0.694795
0	H	0.0941712	0.833622	0.32429
0	H	0.452112	0.293403	0.880072
0	H	0.533708	0.336553	0.196338
0	H	0.94912	0.83029	0.842967
0	H	0.0383666	0.824589	0.171878
0	H	0.446715	0.412469	0.841352
0	H	0.557612	0.446175	0.265548
0	H	0.934199	0.945963	0.790018
0	H	0.0602657	0.935289	0.239528
0	C	0.407936	0.363861	0.0158823
0	C	0.574769	0.377227	0.0510122
0	C	0.909706	0.884761	0.990587
0	C	0.085202	0.869267	0.0378653
0	H	0.376694	0.367183	0.0464725
0	H	0.601696	0.380742	0.0086211
0	H	0.882018	0.891983	0.0306209
0	H	0.114564	0.872153	0.00190745
0	H	0.435473	0.423101	0.0556296
0	H	0.544758	0.433248	0.011149
0	H	0.940567	0.939553	0.0297787
0	H	0.0565277	0.926954	0.997211
0	H	0.432067	0.300805	0.0581062
0	H	0.552233	0.311404	0.0202905
0	H	0.931079	0.818251	0.0245946
0	H	0.0615805	0.804946	0.000901709
0	O	0.191491	0.843025	0.716946
0	O	0.799484	0.875861	0.310677
0	O	0.687636	0.383577	0.728069
0	O	0.285225	0.325155	0.288089
0	H	0.200876	0.787629	0.679304
0	H	0.788509	0.820551	0.345171
0	H	0.696674	0.32691	0.691915
0	H	0.268807	0.279455	0.324815
0	O	0.300419	0.26773	0.980673
0	O	0.688476	0.304934	0.0866741
0	O	0.80019	0.80774	0.961993
0	O	0.187562	0.772905	0.0664977
0	H	0.316868	0.228779	0.0596333
0	H	0.665401	0.28601	0.994886
0	H	0.821819	0.779813	0.0494899
0	H	0.166026	0.74724	0.977687
0	C	0.163042	0.911489	0.620566
0	C	0.829924	0.940877	0.410613
0	C	0.656123	0.448452	0.628571
0	C	0.315934	0.39372	0.383948
0	H	0.178302	0.90207	0.551474
0	H	0.816388	0.929287	0.48229
0	H	0.668461	0.436767	0.554776
0	H	0.30259	0.384891	0.456138
0	C	0.100652	0.89499	0.552938
0	C	0.892001	0.921976	0.471094
0	C	0.594324	0.428148	0.57179
0	C	0.37755	0.371787	0.44299
0	H	0.0924976	0.819546	0.532378
0	H	0.899394	0.846345	0.487909
0	H	0.588284	0.351656	0.563841
0	H	0.383211	0.296193	0.459279
0	H	0.0821708	0.929719	0.460679
0	H	0.912806	0.954727	0.564657
0	H	0.572586	0.455255	0.475098
0	H	0.399513	0.404583	0.53642
0	C	0.0716781	0.928369	0.624148
0	C	0.918267	0.956441	0.394451
0	C	0.567774	0.46733	0.645625
0	C	0.403484	0.40278	0.364198
0	H	0.081623	0.881037	0.703929
0	H	0.906316	0.909865	0.312959
0	H	0.57933	0.423929	0.729807
0	H	0.387466	0.3592	0.278847
0	H	0.0262171	0.924458	0.56175
0	H	0.963909	0.950941	0.451987
0	H	0.522431	0.461833	0.588475
0	H	0.448431	0.390552	0.416487
0	C	0.087516	0.0277366	0.673228
0	C	0.902217	0.0566674	0.348152
0	C	0.583855	0.568424	0.685967
0	C	0.391874	0.505411	0.327789
0	H	0.0750204	0.0747945	0.591424
0	H	0.917444	0.102759	0.431665
0	H	0.569913	0.611378	0.599912
0	H	0.40753	0.547	0.415445
0	C	0.151332	0.0362564	0.757925
0	C	0.838044	0.0675008	0.271329
0	C	0.647936	0.577649	0.765254
0	C	0.328308	0.52137	0.248785
0	C	0.165678	0.13903	0.796009
0	C	0.823115	0.170319	0.2328
0	C	0.66342	0.680398	0.802097
0	C	0.317043	0.626095	0.220171
0	H	0.146279	0.18346	0.712004
0	H	0.846474	0.215417	0.314971
0	H	0.641953	0.725076	0.718775
0	H	0.33903	0.666183	0.30766
0	H	0.147295	0.159985	0.854373
0	H	0.836718	0.189149	0.164721
0	H	0.64841	0.701746	0.866788
0	H	0.334377	0.648451	0.160108
0	C	0.228108	0.155965	0.866741
0	C	0.761142	0.189931	0.176327
0	C	0.725932	0.69625	0.863625
0	C	0.255225	0.649085	0.155151
0	H	0.246776	0.112136	0.953557
0	H	0.737887	0.145839	0.0903741
0	H	0.747071	0.650032	0.948359
0	H	0.23385	0.610174	0.0638824
0	C	0.254602	0.125721	0.787989
0	C	0.74134	0.162569	0.268948
0	C	0.746941	0.667817	0.773587
0	C	0.229624	0.616619	0.234909
0	H	0.240668	0.170808	0.704184
0	H	0.76149	0.206255	0.353709
0	H	0.72839	0.712198	0.689345
0	H	0.246545	0.657371	0.32255
0	H	0.299825	0.135766	0.842537
0	H	0.696571	0.17701	0.226897
0	H	0.792029	0.68006	0.818428
0	H	0.184811	0.631004	0.184692
0	C	0.240801	0.0246996	0.74649
0	C	0.753606	0.0603171	0.304748
0	C	0.733385	0.565998	0.735963
0	C	0.240405	0.513282	0.265753
0	H	0.258046	0.00616269	0.684483
0	H	0.73996	0.0421623	0.373607
0	H	0.747301	0.547302	0.667797
0	H	0.222968	0.491882	0.32586
0	H	0.260252	0.97717	0.8274
0	H	0.729989	0.0151962	0.222641
0	H	0.755976	0.519948	0.817522
0	H	0.219243	0.470823	0.179973
0	C	0.178148	0.0093548	0.676611
0	C	0.815527	0.0406814	0.361173
0	C	0.671181	0.548261	0.677639
0	C	0.30252	0.492956	0.331819
0	H	0.160395	0.0573839	0.593953
0	H	0.837395	0.0861131	0.445862
0	H	0.650282	0.593419	0.592402
0	H	0.322306	0.538436	0.417041
0	C	0.0554622	0.0568146	0.739811
0	C	0.931075	0.0853263	0.274277
0	C	0.553727	0.603261	0.75439
0	C	0.423236	0.536618	0.260552
0	H	0.0660027	0.127245	0.776724
0	H	0.921259	0.156624	0.240728
0	H	0.559983	0.677426	0.773627
0	H	0.422086	0.611795	0.249795
0	H	0.0642006	0.0109583	0.818525
0	H	0.918916	0.0409672	0.192439
0	H	0.568076	0.567749	0.844031
0	H	0.40545	0.506342	0.166655
0	H	0.0110241	0.0548728	0.67581
0	H	0.975858	0.080432	0.332198
0	H	0.509304	0.591625	0.698593
0	H	0.466544	0.515931	0.312351
0	C	0.172052	0.975754	0.874789
0	C	0.814055	0.00680282	0.154277
0	C	0.671022	0.519368	0.88461
0	C	0.303974	0.467257	0.126021
0	H	0.165924	0.901668	0.850185
0	H	0.827355	0.934141	0.178288
0	H	0.671376	0.444944	0.864776
0	H	0.300074	0.392869	0.141226
0	H	0.150881	0.990911	0.927942
0	H	0.82683	0.0294887	0.0872513
0	H	0.646735	0.527357	0.932349
0	H	0.329582	0.472508	0.0811152
0	H	0.216251	0.985015	0.937677
0	H	0.768908	0.00599702	0.106454
0	H	0.713684	0.538289	0.950799
0	H	0.262671	0.491691	0.0588954
0	C	0.240878	0.258409	0.910112
0	C	0.747023	0.292327	0.133
0	C	0.741258	0.797391	0.911213
0	C	0.245939	0.753837	0.122817
0	C	0.224086	0.327877	0.80386
0	C	0.773563	0.362758	0.239043
0	C	0.717007	0.870291	0.808036
0	C	0.270984	0.817174	0.23723
0	H	0.251097	0.322345	0.761708
0	H	0.749229	0.369571	0.287241
0	H	0.743951	0.880226	0.766685
0	H	0.264228	0.790027	0.312194
0	H	0.22802	0.39914	0.838233
0	H	0.775142	0.432017	0.203235
0	H	0.713332	0.938155	0.844479
0	H	0.251087	0.885497	0.212433
0	H	0.181575	0.317402	0.730255
0	H	0.815565	0.343325	0.308003
0	H	0.676126	0.850891	0.73326
0	H	0.315232	0.826252	0.274087
0	C	0.217882	0.283715	0.996761
0	C	0.758696	0.314032	0.0260719
0	C	0.727966	0.816503	0.0162403
0	C	0.263917	0.779805	0.0270908
0	H	0.208788	0.222882	0.0372228
0	H	0.747615	0.256469	0.959309
0	H	0.743227	0.761845	0.0873744
0	H	0.23174	0.763397	0.931208
0	H	0.180029	0.325198	0.950154
0	H	0.802235	0.331129	0.0598518
0	H	0.683454	0.823955	0.980623
0	H	0.301524	0.743747	0.043502
0	H	0.248293	0.325179	0.0773769
0	H	0.734293	0.373796	0.971033
0	H	0.747425	0.880997	0.0660888
0	H	0.271585	0.854712	0.027799
