#******************************************
#
# CIF file created by Zeo++
# Zeo++ is an open source package to
# analyze microporous materials
#
#*******************************************

_cell_length_a		14(0)
_cell_length_b		14.2552(0)
_cell_length_c		10.754(0)
_cell_angle_alpha		90(0)
_cell_angle_beta		90(0)
_cell_angle_gamma		121.419(0)

_symmetry_space_group_name_H-M		'P1'
_symmetry_Int_Tables_number		1
_symmetry_cell_setting		Monoclinic

loop_
_symmetry_equiv_pos_as_xyz
'+x,+y,+z'

loop_
_atom_site_label
_atom_site_type_symbol
_atom_site_fract_x
_atom_site_fract_y
_atom_site_fract_z
0	C	0.795976	0.281945	0.976139
0	C	0.745526	0.51431	0.302522
0	C	0.514364	0.223363	0.643375
0	C	0.24106	0.720625	0.480706
0	C	0.304015	0.506778	0.804098
0	C	0.535419	0.78881	0.137419
0	H	0.845857	0.343484	0.0545363
0	H	0.684948	0.501723	0.381787
0	H	0.533291	0.182103	0.724255
0	H	0.197333	0.657169	0.559118
0	H	0.366424	0.523255	0.883385
0	H	0.526318	0.836445	0.217826
0	N	0.676908	0.209747	0.0208195
0	N	0.814903	0.466722	0.34391
0	N	0.565648	0.343685	0.675034
0	N	0.36226	0.796727	0.51678
0	N	0.234765	0.555548	0.841192
0	N	0.481886	0.669984	0.177249
0	H	0.624769	0.153415	0.95167
0	H	0.869327	0.471572	0.27261
0	H	0.563584	0.388285	0.597906
0	H	0.406979	0.855713	0.446515
0	H	0.181574	0.549381	0.768418
0	H	0.477875	0.619733	0.102557
0	H	0.643437	0.258174	0.044251
0	H	0.762178	0.383879	0.366606
0	H	0.649207	0.377386	0.701631
0	H	0.400856	0.751523	0.529556
0	H	0.287283	0.638837	0.862521
0	H	0.399888	0.640199	0.207642
0	H	0.672467	0.163973	0.100438
0	H	0.864021	0.507803	0.42336
0	H	0.523101	0.354604	0.750053
0	H	0.369635	0.839264	0.600287
0	H	0.184311	0.515591	0.92009
0	H	0.526137	0.660148	0.251012
0	C	0.793894	0.348761	0.865858
0	C	0.675796	0.445275	0.19127
0	C	0.575783	0.218628	0.528057
0	C	0.241052	0.658163	0.364792
0	C	0.371635	0.570186	0.689535
0	C	0.466172	0.789777	0.0274141
0	O	0.702714	0.328962	0.824423
0	O	0.696433	0.377757	0.146432
0	O	0.642395	0.305896	0.474939
0	O	0.332059	0.68006	0.320541
0	O	0.352824	0.638139	0.641996
0	O	0.399274	0.700986	0.977399
0	N	0.894942	0.427052	0.815733
0	N	0.595476	0.463275	0.144263
0	N	0.554387	0.117935	0.487017
0	N	0.140148	0.581012	0.313239
0	N	0.448932	0.54786	0.642722
0	N	0.483651	0.888961	0.98643
0	H	0.968568	0.456171	0.869064
0	H	0.565953	0.503644	0.200444
0	H	0.515438	0.0499017	0.548078
0	H	0.0670758	0.551289	0.366282
0	H	0.474886	0.504163	0.698067
0	H	0.521318	0.957071	0.0477905
0	C	0.895738	0.499826	0.71663
0	C	0.521843	0.389637	0.0438151
0	C	0.627408	0.118512	0.386695
0	C	0.140589	0.51087	0.211494
0	C	0.523662	0.619377	0.541781
0	C	0.407157	0.88654	0.889166
0	H	0.81496	0.453366	0.663128
0	H	0.57009	0.359736	0.989752
0	H	0.661437	0.197978	0.333197
0	H	0.222578	0.558622	0.160127
0	H	0.478668	0.653474	0.489019
0	H	0.373808	0.807824	0.834578
0	C	0.992587	0.528526	0.624111
0	C	0.493354	0.455317	0.951616
0	C	0.561238	0.0244291	0.291737
0	C	0.0460086	0.484144	0.116807
0	C	0.547088	0.550987	0.448292
0	C	0.470715	0.981944	0.794676
0	O	0.083332	0.544201	0.663589
0	O	0.475887	0.527325	0.990927
0	O	0.488573	0.92941	0.323453
0	O	0.952916	0.46494	0.153177
0	O	0.562833	0.477642	0.486248
0	O	0.539651	0.0777073	0.82844
0	O	0.976217	0.537899	0.51027
0	O	0.486118	0.430719	0.83747
0	O	0.589678	0.0479737	0.178727
0	O	0.0659454	0.477991	0.003273
0	O	0.553882	0.576416	0.334461
0	O	0.445276	0.958386	0.681119
0	C	0.851277	0.215024	0.943037
0	C	0.818878	0.63832	0.270876
0	C	0.385934	0.165557	0.626685
0	C	0.180941	0.785058	0.461629
0	C	0.230056	0.381431	0.780705
0	C	0.660658	0.840268	0.102621
0	H	0.927752	0.270958	0.886165
0	H	0.760483	0.662955	0.2315
0	H	0.356098	0.0799129	0.592909
0	H	0.0913341	0.721993	0.437957
0	H	0.288055	0.354307	0.747029
0	H	0.684142	0.913824	0.0424921
0	C	0.775008	0.11253	0.865936
0	C	0.907613	0.660591	0.173331
0	C	0.3534	0.223339	0.530887
0	C	0.233013	0.867884	0.355322
0	C	0.140925	0.353828	0.681586
0	C	0.682047	0.761054	0.0293855
0	H	0.714401	0.0430469	0.923454
0	H	0.973548	0.647864	0.209214
0	H	0.362688	0.299955	0.566462
0	H	0.314373	0.939975	0.380895
0	H	0.0734769	0.365412	0.714968
0	H	0.686978	0.701361	0.0896823
0	H	0.823859	0.0851602	0.814901
0	H	0.948813	0.745204	0.139041
0	H	0.265944	0.170548	0.502264
0	H	0.178538	0.897813	0.326715
0	H	0.10185	0.268229	0.651238
0	H	0.761108	0.80515	0.978134
0	H	0.725476	0.126566	0.797006
0	H	0.871762	0.605723	0.0920202
0	H	0.405098	0.246193	0.446358
0	H	0.248952	0.832678	0.2723
0	H	0.175425	0.405864	0.598547
0	H	0.615633	0.712024	0.960998
0	C	0.890283	0.185393	0.061531
0	C	0.871407	0.705449	0.389188
0	C	0.331951	0.157672	0.753147
0	C	0.18185	0.841914	0.582742
0	C	0.177381	0.322151	0.902991
0	C	0.732925	0.880658	0.220004
0	H	0.955532	0.259709	0.108885
0	H	0.806944	0.697571	0.454004
0	H	0.355763	0.116271	0.822533
0	H	0.144309	0.782602	0.660078
0	H	0.242004	0.343195	0.974851
0	H	0.723583	0.94307	0.268834
0	H	0.926087	0.134811	0.0399862
0	H	0.925824	0.793064	0.367517
0	H	0.240504	0.110775	0.746489
0	H	0.133857	0.882384	0.572813
0	H	0.131894	0.232821	0.890578
0	H	0.821816	0.918188	0.196756
0	H	0.821811	0.13888	0.127695
0	H	0.923354	0.680627	0.438962
0	H	0.356652	0.239179	0.790703
0	H	0.267006	0.905794	0.611577
0	H	0.117529	0.342916	0.940381
0	H	0.711895	0.813659	0.285582
0	C	0.906151	0.606263	0.770274
0	C	0.413569	0.287291	0.0951026
0	C	0.728782	0.113534	0.437773
0	C	0.129024	0.402677	0.260983
0	C	0.635517	0.717802	0.592295
0	C	0.305491	0.888067	0.945527
0	H	0.902911	0.653455	0.688689
0	H	0.368707	0.234303	0.0126703
0	H	0.780847	0.120784	0.354883
0	H	0.123374	0.353122	0.177152
0	H	0.683397	0.767705	0.509195
0	H	0.250477	0.879786	0.865267
0	C	0.017255	0.677269	0.838344
0	C	0.336247	0.317657	0.159847
0	C	0.69137	0.00467048	0.503536
0	C	0.0231431	0.33579	0.339129
0	C	0.705792	0.680378	0.660414
0	C	0.341462	0.995907	0.012905
0	H	0.0272077	0.632163	0.915273
0	H	0.377969	0.372513	0.239434
0	H	0.647299	0.998011	0.590818
0	H	0.0308065	0.374198	0.43017
0	H	0.665362	0.637403	0.747366
0	H	0.403328	0.0128348	0.0861501
0	H	0.023295	0.750927	0.877952
0	H	0.260828	0.24449	0.195336
0	H	0.763108	0.996907	0.526809
0	H	0.00589021	0.25266	0.356493
0	H	0.788385	0.750529	0.684841
0	H	0.270098	0.993773	0.0577216
0	H	0.0891567	0.70401	0.775305
0	H	0.309305	0.360197	0.0960927
0	H	0.633655	0.933763	0.445931
0	H	0.949475	0.328516	0.293225
0	H	0.718264	0.623388	0.603931
0	H	0.379835	0.0661558	0.94796
0	C	0.808764	0.579751	0.857664
0	C	0.442128	0.221958	0.184902
0	C	0.800483	0.210023	0.525312
0	C	0.232546	0.427284	0.336013
0	C	0.612952	0.789832	0.678211
0	C	0.238495	0.79031	0.0331602
0	H	0.726687	0.521027	0.818075
0	H	0.504014	0.205153	0.146015
0	H	0.824517	0.289498	0.483617
0	H	0.309357	0.46899	0.280363
0	H	0.556741	0.812542	0.63555
0	H	0.224463	0.713044	0.994351
0	H	0.808265	0.654313	0.881454
0	H	0.367439	0.142973	0.20897
0	H	0.877674	0.21278	0.551191
0	H	0.224424	0.351531	0.372249
0	H	0.69078	0.865765	0.703003
0	H	0.156124	0.778329	0.0536972
0	H	0.814791	0.544255	0.946379
0	H	0.477045	0.266196	0.272925
0	H	0.756667	0.203803	0.612531
0	H	0.246321	0.480211	0.416583
0	H	0.573444	0.747926	0.765875
0	H	0.280895	0.802406	0.123433
