#******************************************
#
# CIF file created by Zeo++
# Zeo++ is an open source package to
# analyze microporous materials
#
#*******************************************

_cell_length_a		29.4698(0)
_cell_length_b		29.4484(0)
_cell_length_c		9.85811(0)
_cell_angle_alpha		90(0)
_cell_angle_beta		90(0)
_cell_angle_gamma		119.943(0)

_symmetry_space_group_name_H-M		'P1'
_symmetry_Int_Tables_number		1
_symmetry_cell_setting		Monoclinic

loop_
_symmetry_equiv_pos_as_xyz
'+x,+y,+z'

loop_
_atom_site_label
_atom_site_type_symbol
_atom_site_fract_x
_atom_site_fract_y
_atom_site_fract_z
0	S	0.207651	0.279078	0.288338
0	S	0.719414	0.928312	0.287376
0	S	0.0701051	0.791899	0.287495
0	S	0.79061	0.720173	0.704731
0	S	0.27835	0.0710973	0.704661
0	S	0.928045	0.207531	0.704467
0	S	0.546477	0.377122	0.397051
0	S	0.621734	0.169722	0.397086
0	S	0.829025	0.452435	0.397201
0	S	0.451703	0.622343	0.595107
0	S	0.376371	0.829766	0.594946
0	S	0.169109	0.546992	0.594998
0	P	0.23962	0.2378	0.2233
0	P	0.760874	0.00153189	0.223043
0	P	0.9968	0.759638	0.222874
0	P	0.758594	0.761522	0.76896
0	P	0.237118	0.997864	0.769037
0	P	0.00134639	0.239789	0.769156
0	P	0.343645	0.343852	0.135702
0	P	0.654948	0.999839	0.136019
0	P	0.998673	0.655323	0.135882
0	P	0.654516	0.655535	0.856454
0	P	0.343108	0.999628	0.856015
0	P	0.999434	0.344074	0.856201
0	P	0.517091	0.393593	0.236535
0	P	0.605432	0.123764	0.236822
0	P	0.874811	0.481863	0.236646
0	P	0.481068	0.60584	0.755626
0	P	0.392667	0.875713	0.755251
0	P	0.123293	0.517549	0.755489
0	P	0.413261	0.28025	0.251939
0	P	0.718886	0.133212	0.251907
0	P	0.865393	0.585914	0.252001
0	P	0.584931	0.719153	0.740114
0	P	0.279221	0.866261	0.740081
0	P	0.132723	0.413504	0.740153
0	C	0.313352	0.279224	0.228156
0	C	0.719477	0.0339098	0.228593
0	C	0.964616	0.685862	0.228557
0	C	0.684857	0.720147	0.763944
0	C	0.278585	0.965563	0.763422
0	C	0.0335095	0.313558	0.763511
0	H	0.323341	0.288085	0.338482
0	H	0.710546	0.0348245	0.339029
0	H	0.963762	0.676071	0.338985
0	H	0.674896	0.711289	0.653605
0	H	0.287519	0.964671	0.652979
0	H	0.0343661	0.323355	0.653086
0	C	0.443015	0.353441	0.235668
0	C	0.64572	0.0898939	0.236045
0	C	0.908717	0.556001	0.235809
0	C	0.555149	0.645961	0.756465
0	C	0.352384	0.909586	0.755993
0	C	0.0893931	0.44341	0.756328
0	H	0.430212	0.367245	0.326259
0	H	0.63205	0.0633466	0.326718
0	H	0.935283	0.568789	0.326413
0	H	0.567923	0.632134	0.665863
0	H	0.36606	0.936129	0.665315
0	H	0.0628418	0.430627	0.665704
0	C	0.215744	0.209336	0.0547454
0	C	0.789461	0.0062805	0.0545121
0	C	0.991975	0.783376	0.0542648
0	C	0.782414	0.790084	0.93747
0	C	0.208536	0.993055	0.937599
0	C	0.0061399	0.216018	0.937751
0	C	0.18339	0.22258	0.982281
0	C	0.776195	0.960771	0.981808
0	C	0.0375392	0.815707	0.98168
0	C	0.814821	0.776939	0.0100525
0	C	0.221795	0.0385428	0.0104111
0	C	0.960561	0.183654	0.0102244
0	H	0.173616	0.251653	0.0201431
0	H	0.74698	0.921994	0.0194089
0	H	0.0763354	0.825396	0.0194277
0	H	0.824659	0.747897	0.972308
0	H	0.251024	0.0773287	0.972898
0	H	0.921771	0.173956	0.972412
0	C	0.162856	0.198147	0.857506
0	C	0.800689	0.964624	0.85717
0	C	0.0336275	0.836325	0.857008
0	C	0.835313	0.80143	0.134799
0	C	0.197256	0.0346487	0.134993
0	C	0.964446	0.163002	0.134873
0	H	0.137716	0.208349	0.799395
0	H	0.790494	0.929307	0.798883
0	H	0.068905	0.861492	0.798865
0	H	0.860516	0.791326	0.19296
0	H	0.207421	0.0699437	0.193352
0	H	0.929149	0.137781	0.19288
0	C	0.174703	0.160883	0.807371
0	C	0.837971	0.013618	0.807369
0	C	0.984512	0.824546	0.807124
0	C	0.823307	0.838593	0.184846
0	C	0.159972	0.985632	0.184682
0	C	0.0135573	0.174826	0.184907
0	H	0.158637	0.14181	0.710241
0	H	0.857011	0.0165555	0.710204
0	H	0.981518	0.840658	0.710053
0	H	0.839335	0.857707	0.281964
0	H	0.14089	0.982664	0.281795
0	H	0.0165315	0.158702	0.281979
0	C	0.207292	0.147992	0.881154
0	C	0.850904	0.0590924	0.881184
0	C	0.939084	0.791976	0.880983
0	C	0.790626	0.851342	0.111008
0	C	0.147069	0.940181	0.110808
0	C	0.0590032	0.207437	0.111145
0	H	0.216464	0.118816	0.841953
0	H	0.880178	0.0974007	0.842178
0	H	0.900799	0.782923	0.84191
0	H	0.781307	0.880416	0.150195
0	H	0.117801	0.901858	0.149737
0	H	0.0972837	0.216511	0.150308
0	C	0.228172	0.172427	0.00531017
0	C	0.826429	0.0555864	0.0052341
0	C	0.942665	0.771024	0.00499493
0	C	0.769834	0.826896	0.986815
0	C	0.171559	0.943732	0.986742
0	C	0.0554467	0.228386	0.987114
0	H	0.253716	0.162051	0.0617614
0	H	0.836842	0.0915052	0.0616787
0	H	0.906799	0.745502	0.0614453
0	H	0.744237	0.837177	0.930282
0	H	0.161147	0.907833	0.93021
0	H	0.0913191	0.253916	0.930695
0	C	0.221873	0.181759	0.337602
0	C	0.816751	0.0396975	0.337693
0	C	0.958523	0.777335	0.337355
0	C	0.776337	0.817509	0.654429
0	C	0.181237	0.959643	0.654454
0	C	0.0396166	0.222082	0.654682
0	C	0.174469	0.135552	0.316421
0	C	0.862954	0.0384866	0.316106
0	C	0.959657	0.824757	0.316006
0	C	0.823726	0.863749	0.675569
0	C	0.135026	0.960834	0.676121
0	C	0.038527	0.174689	0.676216
0	H	0.148723	0.131098	0.231525
0	H	0.867366	0.0172638	0.230912
0	H	0.980871	0.850457	0.23095
0	H	0.84952	0.868215	0.760366
0	H	0.130607	0.982032	0.761371
0	H	0.0173613	0.149029	0.761377
0	C	0.159417	0.0935065	0.405889
0	C	0.905004	0.0653628	0.405477
0	C	0.932731	0.839872	0.405526
0	C	0.838696	0.905801	0.586184
0	C	0.092977	0.933981	0.586759
0	C	0.0654035	0.159525	0.58667
0	H	0.122755	0.0571305	0.38982
0	H	0.941313	0.0649221	0.389214
0	H	0.933021	0.876581	0.389404
0	H	0.875359	0.942189	0.602181
0	H	0.0566662	0.934413	0.603078
0	H	0.0651177	0.122823	0.602895
0	C	0.191588	0.0980847	0.515464
0	C	0.900494	0.0930007	0.515122
0	C	0.905218	0.8077	0.515176
0	C	0.806442	0.90124	0.476836
0	C	0.0974869	0.906386	0.477006
0	C	0.092848	0.191625	0.476838
0	H	0.180383	0.0651079	0.584355
0	H	0.933499	0.11475	0.583851
0	H	0.883486	0.818941	0.584113
0	H	0.817565	0.934228	0.408043
0	H	0.0644847	0.884669	0.408264
0	H	0.114541	0.180345	0.407882
0	C	0.23864	0.144817	0.536348
0	C	0.853801	0.0934385	0.536243
0	C	0.904888	0.760582	0.536098
0	C	0.759408	0.854492	0.456018
0	C	0.14418	0.905962	0.455803
0	C	0.0931321	0.23871	0.455742
0	H	0.263697	0.148509	0.622363
0	H	0.850233	0.11492	0.622233
0	H	0.883488	0.735505	0.62206
0	H	0.734274	0.850834	0.370219
0	H	0.147753	0.88452	0.369728
0	H	0.114472	0.263724	0.36963
0	C	0.254144	0.186897	0.446906
0	C	0.811661	0.0668607	0.447097
0	C	0.931472	0.745055	0.446716
0	C	0.74401	0.812368	0.545263
0	C	0.186327	0.93252	0.544966
0	C	0.0665646	0.254271	0.545091
0	H	0.291447	0.222676	0.465033
0	H	0.775898	0.0684181	0.465544
0	H	0.930043	0.707754	0.464959
0	H	0.706737	0.776562	0.527119
0	H	0.222091	0.930974	0.526444
0	H	0.0679272	0.291529	0.526661
0	C	0.30698	0.335331	0.978419
0	C	0.66317	0.97145	0.978772
0	C	0.0269654	0.691985	0.978604
0	C	0.691185	0.664058	0.0137343
0	C	0.334889	0.0280097	0.0132794
0	C	0.971119	0.307386	0.0134323
0	C	0.31441	0.308932	0.870607
0	C	0.68965	0.00528206	0.871294
0	C	0.993097	0.684641	0.87094
0	C	0.68381	0.690524	0.121476
0	C	0.308438	0.994167	0.120756
0	C	0.00496895	0.314711	0.121144
0	H	0.341767	0.294067	0.87735
0	H	0.70469	0.0475103	0.878581
0	H	0.950913	0.657403	0.877875
0	H	0.656495	0.70544	0.114682
0	H	0.29343	0.951943	0.11347
0	H	0.0471526	0.341957	0.114275
0	C	0.285642	0.300634	0.751079
0	C	0.697954	0.984968	0.751517
0	C	0.0135901	0.7134	0.751374
0	C	0.712575	0.698806	0.241013
0	C	0.300112	0.0144645	0.240541
0	C	0.984451	0.285911	0.240635
0	H	0.290542	0.279462	0.666943
0	H	0.719226	0.0110355	0.667712
0	H	0.987481	0.708586	0.667306
0	H	0.707727	0.720042	0.325077
0	H	0.278839	0.988377	0.324311
0	H	0.0105461	0.290688	0.324714
0	C	0.249701	0.318359	0.740481
0	C	0.679925	0.931246	0.740295
0	C	0.0672154	0.7492	0.740586
0	C	0.748419	0.680965	0.251707
0	C	0.318105	0.0681783	0.251788
0	C	0.930821	0.250128	0.251367
0	H	0.226796	0.310915	0.6476
0	H	0.687351	0.915859	0.647261
0	H	0.0826325	0.772094	0.647728
0	H	0.771308	0.688376	0.344612
0	H	0.31066	0.0835533	0.344818
0	H	0.915383	0.227204	0.344173
0	C	0.242531	0.344655	0.849196
0	C	0.653388	0.897675	0.848562
0	C	0.100691	0.756215	0.84911
0	C	0.755524	0.654599	0.143057
0	C	0.344616	0.101754	0.143502
0	C	0.897367	0.24316	0.142844
0	H	0.214247	0.358184	0.841903
0	H	0.639563	0.85581	0.840576
0	H	0.142483	0.784358	0.841594
0	H	0.783732	0.640977	0.150429
0	H	0.358406	0.143613	0.151497
0	H	0.85557	0.215042	0.150329
0	C	0.271036	0.352986	0.969278
0	C	0.64515	0.917785	0.968911
0	C	0.0805465	0.727748	0.969258
0	C	0.727052	0.64631	0.0229463
0	C	0.352859	0.081665	0.0231342
0	C	0.917537	0.271632	0.0227071
0	H	0.26415	0.372772	0.0541512
0	H	0.625164	0.891013	0.0533714
0	H	0.10723	0.734515	0.0539274
0	H	0.7339	0.626486	0.9381
0	H	0.372806	0.108434	0.938639
0	H	0.890869	0.264878	0.938017
0	C	0.340628	0.393267	0.244137
0	C	0.605471	0.947743	0.244414
0	C	0.0511075	0.65827	0.244158
0	C	0.657492	0.606098	0.748013
0	C	0.392582	0.0517108	0.747586
0	C	0.946996	0.341127	0.747941
0	C	0.357875	0.44322	0.190371
0	C	0.555656	0.915265	0.189986
0	C	0.0837726	0.641024	0.190091
0	C	0.640276	0.556154	0.801811
0	C	0.442403	0.0842054	0.802
0	C	0.914312	0.358344	0.802068
0	H	0.371409	0.453071	0.0855763
0	H	0.546036	0.919198	0.0851139
0	H	0.0800584	0.627558	0.0852069
0	H	0.626794	0.54632	0.906644
0	H	0.45202	0.0803207	0.906912
0	H	0.918016	0.371779	0.906982
0	C	0.358199	0.482081	0.272609
0	C	0.516681	0.876647	0.271604
0	C	0.122314	0.64066	0.272121
0	C	0.639898	0.517278	0.719542
0	C	0.481388	0.122763	0.720275
0	C	0.875777	0.358726	0.720079
0	H	0.371693	0.521208	0.23182
0	H	0.477685	0.851122	0.230192
0	H	0.147916	0.627164	0.231067
0	H	0.626422	0.478154	0.760341
0	H	0.520393	0.148293	0.761658
0	H	0.850156	0.372194	0.761174
0	C	0.341737	0.471242	0.407777
0	C	0.527284	0.870824	0.406855
0	C	0.127968	0.657077	0.407348
0	C	0.656275	0.528087	0.584303
0	C	0.470794	0.128523	0.584974
0	C	0.870144	0.342364	0.584804
0	H	0.342674	0.501939	0.471983
0	H	0.496524	0.840936	0.470476
0	H	0.157696	0.656059	0.47142
0	H	0.655284	0.497369	0.520076
0	H	0.501568	0.15835	0.521252
0	H	0.840425	0.34341	0.520758
0	C	0.324683	0.421282	0.460656
0	C	0.577063	0.903646	0.460527
0	C	0.0951355	0.674184	0.460468
0	C	0.673291	0.57803	0.531376
0	C	0.421007	0.0957116	0.531368
0	C	0.902972	0.325267	0.531624
0	H	0.312045	0.412643	0.566067
0	H	0.585456	0.899545	0.566112
0	H	0.0991811	0.686814	0.565926
0	H	0.68585	0.58664	0.425901
0	H	0.412617	0.099772	0.425752
0	H	0.898933	0.312668	0.426142
0	C	0.324019	0.382068	0.378724
0	C	0.616413	0.942232	0.379173
0	C	0.0565916	0.674907	0.378758
0	C	0.674001	0.617261	0.613343
0	C	0.381644	0.0571731	0.612793
0	C	0.941513	0.324521	0.61332
0	H	0.310029	0.343402	0.423601
0	H	0.654978	0.966835	0.424484
0	H	0.0319969	0.688989	0.423713
0	H	0.68795	0.655911	0.568427
0	H	0.343073	0.0325765	0.567525
0	H	0.966095	0.310435	0.568311
0	C	0.534741	0.463266	0.240714
0	C	0.535798	0.0719197	0.240591
0	C	0.926645	0.464012	0.240623
0	C	0.46338	0.536157	0.75141
0	C	0.462314	0.927531	0.751535
0	C	0.0714358	0.535369	0.751443
0	C	0.501192	0.478764	0.297069
0	C	0.520248	0.0228522	0.296838
0	C	0.975656	0.497574	0.296824
0	C	0.49693	0.520654	0.695093
0	C	0.477899	0.976598	0.695261
0	C	0.0224523	0.501794	0.695158
0	H	0.462118	0.450509	0.334007
0	H	0.548475	0.0119228	0.333706
0	H	0.986426	0.536685	0.33367
0	H	0.53601	0.548904	0.658173
0	H	0.449691	0.987545	0.658349
0	H	0.0117182	0.4627	0.658262
0	C	0.517826	0.532311	0.306903
0	C	0.466796	0.986191	0.306703
0	C	0.0125666	0.480878	0.306617
0	C	0.480294	0.467104	0.685279
0	C	0.531364	0.0132363	0.685454
0	C	0.985499	0.518439	0.685375
0	H	0.491719	0.544611	0.351002
0	H	0.454483	0.947769	0.35065
0	H	0.0509024	0.507006	0.350646
0	H	0.5064	0.4548	0.641209
0	H	0.543706	0.0516559	0.641463
0	H	0.947181	0.492291	0.641301
0	C	0.567557	0.569579	0.260817
0	C	0.429567	0.998838	0.260848
0	C	1.22276e-05	0.431075	0.260582
0	C	0.430549	0.42984	0.731263
0	C	0.568558	0.000554338	0.731394
0	C	0.997995	0.568216	0.731475
0	H	0.58052	0.611233	0.268135
0	H	0.387989	0.970402	0.268258
0	H	0.0287137	0.418045	0.267708
0	H	0.417582	0.388185	0.723969
0	H	0.610146	0.0289721	0.724062
0	H	0.96926	0.581204	0.724367
0	C	0.600912	0.553537	0.205014
0	C	0.44564	0.0482452	0.205034
0	C	0.950646	0.397688	0.205079
0	C	0.39717	0.445886	0.786909
0	C	0.552441	0.951124	0.787139
0	C	0.047349	0.60163	0.78705
0	H	0.63988	0.582723	0.17026
0	H	0.416573	0.0582357	0.17043
0	H	0.940818	0.358661	0.170528
0	H	0.358182	0.416699	0.821528
0	H	0.581483	0.941096	0.821729
0	H	0.0571352	0.64064	0.821643
0	C	0.584524	0.500181	0.194338
0	C	0.499017	0.0850174	0.194325
0	C	0.913724	0.414148	0.194509
0	C	0.413566	0.499242	0.797607
0	C	0.49906	0.914382	0.797801
0	C	0.0842994	0.58521	0.797636
0	H	0.611347	0.48867	0.150362
0	H	0.510598	0.123358	0.150267
0	H	0.875394	0.387321	0.150827
0	H	0.38672	0.510754	0.841437
0	H	0.487441	0.876019	0.841775
0	H	0.122615	0.61205	0.841397
0	C	0.542371	0.38413	0.0744081
0	C	0.614966	0.158454	0.0745752
0	C	0.840138	0.456642	0.0744814
0	C	0.455762	0.615298	0.917718
0	C	0.383112	0.840985	0.917447
0	C	0.157959	0.542778	0.917673
0	C	0.527581	0.398478	0.954512
0	C	0.600724	0.12937	0.954627
0	C	0.869195	0.471403	0.954499
0	C	0.470578	0.601004	0.0376669
0	C	0.397355	0.870045	0.0374473
0	C	0.128908	0.528008	0.0376516
0	H	0.502257	0.415955	0.954562
0	H	0.5833	0.0865778	0.954612
0	H	0.911949	0.496712	0.954425
0	H	0.495946	0.583578	0.0376906
0	H	0.414785	0.912836	0.0375373
0	H	0.0861571	0.502693	0.0377442
0	C	0.545636	0.390632	0.830446
0	C	0.608532	0.15531	0.830624
0	C	0.843268	0.453298	0.830518
0	C	0.452468	0.608821	0.161683
0	C	0.389535	0.844068	0.161398
0	C	0.154847	0.546117	0.161637
0	H	0.53365	0.400815	0.735891
0	H	0.598489	0.133207	0.735969
0	H	0.865352	0.465258	0.735853
0	H	0.464471	0.598676	0.256276
0	H	0.399585	0.86615	0.256095
0	H	0.132762	0.534145	0.256295
0	C	0.579022	0.369646	0.827198
0	C	0.629323	0.20965	0.827609
0	C	0.788962	0.419892	0.82748
0	C	0.418992	0.629703	0.164845
0	C	0.368723	0.789724	0.164327
0	C	0.209151	0.579538	0.164659
0	H	0.593032	0.363927	0.729696
0	H	0.634987	0.229415	0.730185
0	H	0.769206	0.405848	0.730049
0	H	0.404928	0.63539	0.262296
0	H	0.363044	0.769927	0.261704
0	H	0.228919	0.593589	0.262077
0	C	0.59423	0.356264	0.94813
0	C	0.642595	0.23819	0.948609
0	C	0.760461	0.404697	0.948488
0	C	0.403758	0.643019	0.0438618
0	C	0.355451	0.761218	0.0432829
0	C	0.237639	0.594743	0.0436181
0	H	0.620259	0.340024	0.945594
0	H	0.658699	0.280439	0.946267
0	H	0.718243	0.378651	0.946143
0	H	0.377648	0.659167	0.0463212
0	H	0.339329	0.718965	0.0455555
0	H	0.279856	0.620808	0.0459478
0	C	0.575596	0.363148	0.0727589
0	C	0.635766	0.212625	0.0731368
0	C	0.78601	0.423371	0.0730359
0	C	0.422444	0.636173	0.91927
0	C	0.362296	0.786811	0.918792
0	C	0.212089	0.576069	0.919092
0	H	0.587435	0.351685	0.16635
0	H	0.647059	0.235831	0.166887
0	H	0.762812	0.411514	0.166758
0	H	0.410572	0.647577	0.825641
0	H	0.351004	0.763629	0.82501
0	H	0.235273	0.587934	0.825342
0	C	0.407244	0.262234	0.432809
0	C	0.736912	0.145259	0.432756
0	C	0.853268	0.591817	0.432849
0	C	0.590895	0.737137	0.559224
0	C	0.261178	0.854181	0.559258
0	C	0.144825	0.407581	0.559291
0	C	0.387939	0.209368	0.463728
0	C	0.789729	0.178728	0.463713
0	C	0.819771	0.611211	0.463698
0	C	0.61017	0.789996	0.528295
0	C	0.208352	0.8207	0.528468
0	C	0.178325	0.388194	0.52842
0	H	0.378294	0.17977	0.385101
0	H	0.81932	0.198548	0.385079
0	H	0.799918	0.620967	0.385039
0	H	0.619832	0.8196	0.606918
0	H	0.178783	0.800921	0.607176
0	H	0.198188	0.378442	0.607067
0	C	0.38055	0.193359	0.599325
0	C	0.805671	0.187371	0.599355
0	C	0.811123	0.618573	0.599293
0	C	0.617496	0.805989	0.392685
0	C	0.192354	0.811979	0.392877
0	C	0.186967	0.380832	0.392816
0	H	0.366261	0.152183	0.624379
0	H	0.846807	0.214194	0.624483
0	H	0.78421	0.632837	0.624309
0	H	0.631735	0.847153	0.367619
0	H	0.151209	0.785137	0.367901
0	H	0.213866	0.366555	0.367774
0	C	0.391533	0.229838	0.702923
0	C	0.769168	0.161957	0.702845
0	C	0.836584	0.607552	0.702898
0	C	0.606492	0.769507	0.289099
0	C	0.228805	0.837333	0.289241
0	C	0.161495	0.391842	0.289232
0	H	0.384576	0.216855	0.80849
0	H	0.782092	0.168036	0.808455
0	H	0.83062	0.614603	0.808437
0	H	0.613406	0.782477	0.183515
0	H	0.215835	0.831195	0.183677
0	H	0.167473	0.384821	0.18368
0	C	0.411286	0.282656	0.671261
0	C	0.716413	0.1289	0.671128
0	C	0.86954	0.587656	0.671293
0	C	0.586754	0.716691	0.320773
0	C	0.281575	0.870417	0.320805
0	C	0.12849	0.41168	0.320865
0	H	0.4211	0.311368	0.752068
0	H	0.687707	0.109994	0.751864
0	H	0.888374	0.577768	0.752107
0	H	0.576906	0.687976	0.239965
0	H	0.310243	0.889283	0.239963
0	H	0.109616	0.421522	0.240065
0	C	0.419468	0.29911	0.535598
0	C	0.700025	0.120625	0.535432
0	C	0.877794	0.579439	0.53564
0	C	0.578626	0.700249	0.456443
0	C	0.298021	0.878759	0.456452
0	C	0.120244	0.419899	0.456521
0	H	0.435979	0.340841	0.514381
0	H	0.658347	0.0953973	0.514101
0	H	0.902901	0.562789	0.514446
0	H	0.562114	0.658517	0.477662
0	H	0.339711	0.903996	0.477669
0	H	0.0950891	0.436494	0.477735
0	C	0.454113	0.258025	0.167441
0	C	0.741127	0.196311	0.167342
0	C	0.802336	0.545102	0.167477
0	C	0.544064	0.741374	0.824568
0	C	0.256978	0.803156	0.82464
0	C	0.195794	0.454331	0.824617
0	C	0.451284	0.253326	0.0263699
0	C	0.745921	0.198267	0.0262863
0	C	0.800409	0.547901	0.0264074
0	C	0.546917	0.746135	0.965625
0	C	0.252217	0.801205	0.965701
0	C	0.197766	0.451559	0.965678
0	H	0.425969	0.263004	0.966524
0	H	0.736437	0.163348	0.966331
0	H	0.835325	0.573216	0.966472
0	H	0.572297	0.736552	0.0255051
0	H	0.261736	0.83613	0.0256751
0	H	0.162869	0.426247	0.0256741
0	C	0.481858	0.236178	0.95929
0	C	0.762895	0.245969	0.959253
0	C	0.752748	0.517285	0.95935
0	C	0.51627	0.763206	0.0326612
0	C	0.235222	0.753494	0.0327151
0	C	0.245453	0.482198	0.0326317
0	H	0.48007	0.232641	0.849043
0	H	0.766477	0.247762	0.849017
0	H	0.75098	0.519069	0.849104
0	H	0.518062	0.766775	0.142902
0	H	0.231658	0.751701	0.142955
0	H	0.247263	0.480441	0.142872
0	C	0.515031	0.224219	0.0332765
0	C	0.774615	0.291037	0.0332357
0	C	0.70769	0.484061	0.0333017
0	C	0.483025	0.775055	0.958653
0	C	0.223453	0.708419	0.958722
0	C	0.290478	0.515404	0.958544
0	H	0.5391	0.211184	0.980599
0	H	0.787432	0.328107	0.980602
0	H	0.67064	0.459925	0.980653
0	H	0.458893	0.788026	0.011285
0	H	0.210619	0.671338	0.0113248
0	H	0.327551	0.539557	0.011103
0	C	0.517908	0.229501	0.174467
0	C	0.769339	0.288591	0.174424
0	C	0.710122	0.481207	0.174484
0	C	0.480153	0.769745	0.817471
0	C	0.228697	0.710864	0.817524
0	C	0.288	0.51822	0.817362
0	H	0.544178	0.220655	0.232161
0	H	0.778038	0.323662	0.232157
0	H	0.67507	0.454888	0.232178
0	H	0.45384	0.778522	0.759757
0	H	0.219954	0.675785	0.759779
0	H	0.323032	0.544524	0.759567
0	C	0.487553	0.246784	0.242313
0	C	0.752206	0.240967	0.242199
0	C	0.757704	0.511612	0.242305
0	C	0.510554	0.752509	0.749667
0	C	0.24584	0.758489	0.749758
0	C	0.240399	0.487807	0.749664
0	H	0.491133	0.251673	0.352641
0	H	0.747308	0.23966	0.352515
0	H	0.758986	0.508013	0.35263
0	H	0.50696	0.747581	0.639351
0	H	0.250706	0.759789	0.639429
0	H	0.239076	0.491378	0.63934
0	B	0.42072	0.367813	0.0999433
0	B	0.631441	0.0533269	0.100135
0	B	0.945341	0.578268	0.10005
0	B	0.577447	0.63159	0.892185
0	B	0.366615	0.946134	0.891932
0	B	0.0527438	0.421137	0.892043
0	H	0.4226	0.345906	0.999417
0	H	0.653586	0.077184	0.99993
0	H	0.921553	0.576489	0.999642
0	H	0.575558	0.653496	0.992708
0	H	0.344429	0.922248	0.992063
0	H	0.0765186	0.422934	0.9925
0	H	0.441455	0.414335	0.0832978
0	H	0.584982	0.0277476	0.0829045
0	H	0.970931	0.557323	0.0831173
0	H	0.556707	0.585066	0.908811
0	H	0.413069	0.971717	0.909282
0	H	0.0271218	0.442054	0.908874
0	B	0.339079	0.244565	0.174061
0	B	0.754244	0.0942223	0.174397
0	B	0.904297	0.660244	0.174537
0	B	0.659138	0.754837	0.81788
0	B	0.243832	0.905231	0.817532
0	B	0.0938286	0.339166	0.817547
0	H	0.317282	0.201183	0.221059
0	H	0.797628	0.115649	0.221232
0	H	0.882789	0.682176	0.22132
0	H	0.680933	0.798191	0.770712
0	H	0.200461	0.883797	0.770637
0	H	0.115321	0.317236	0.770662
0	H	0.341864	0.243463	0.0529195
0	H	0.755201	0.0979286	0.0532037
0	H	0.900589	0.657469	0.0533586
0	H	0.656369	0.755999	0.939018
0	H	0.242842	0.901501	0.938722
0	H	0.0975352	0.341914	0.938726
