#******************************************
#
# CIF file created by Zeo++
# Zeo++ is an open source package to
# analyze microporous materials
#
#*******************************************

_cell_length_a		16.4872(0)
_cell_length_b		19.3864(0)
_cell_length_c		6.09114(0)
_cell_angle_alpha		90(0)
_cell_angle_beta		90(0)
_cell_angle_gamma		90(0)

_symmetry_space_group_name_H-M		'P1'
_symmetry_Int_Tables_number		1
_symmetry_cell_setting		Monoclinic

loop_
_symmetry_equiv_pos_as_xyz
'+x,+y,+z'

loop_
_atom_site_label
_atom_site_type_symbol
_atom_site_fract_x
_atom_site_fract_y
_atom_site_fract_z
0	C	0.067971	0.941919	0.77388
0	C	0.443469	0.0628013	0.287988
0	C	0.945223	0.442148	0.778564
0	C	0.568885	0.562602	0.293762
0	C	0.0694029	0.96096	0.0200828
0	C	0.441918	0.04368	0.534145
0	C	0.943236	0.460928	0.532155
0	C	0.570458	0.543316	0.0477933
0	C	0.00665883	0.0812703	0.963211
0	C	0.504641	0.923124	0.477235
0	C	0.00617432	0.581325	0.587316
0	C	0.508333	0.42272	0.106423
0	C	0.013916	0.159634	0.996929
0	C	0.497031	0.84478	0.51116
0	C	0.99854	0.659659	0.553649
0	C	0.515728	0.344393	0.0717228
0	C	0.0327078	0.174795	0.238176
0	C	0.478223	0.829787	0.752509
0	C	0.979513	0.674667	0.312425
0	C	0.534448	0.329426	0.830263
0	C	0.114984	0.138845	0.29268
0	C	0.396106	0.866032	0.807198
0	C	0.897359	0.63845	0.258097
0	C	0.616648	0.36558	0.775873
0	C	0.143382	0.173799	0.506274
0	C	0.36767	0.831384	0.0212237
0	C	0.868679	0.67322	0.0444462
0	C	0.645295	0.330657	0.562523
0	C	0.118622	0.249851	0.474726
0	C	0.392331	0.755275	0.990625
0	C	0.893408	0.749328	0.0755038
0	C	0.620728	0.254565	0.594056
0	C	0.0520738	0.249893	0.301935
0	C	0.458544	0.754756	0.816743
0	C	0.959822	0.74972	0.248819
0	C	0.553802	0.254331	0.765802
0	C	0.961021	0.154174	0.384956
0	C	0.550014	0.850307	0.899202
0	C	0.051097	0.654125	0.165133
0	C	0.462815	0.350267	0.683722
0	C	0.988708	0.939196	0.129137
0	C	0.522667	0.065098	0.643663
0	C	0.0237462	0.439253	0.421898
0	C	0.4896	0.564338	0.938016
0	C	0.0544102	0.865149	0.736202
0	C	0.457835	0.139527	0.251186
0	C	0.958934	0.365402	0.816687
0	C	0.554398	0.639315	0.330269
0	C	0.108026	0.819306	0.871275
0	C	0.404418	0.185634	0.386061
0	C	0.905128	0.319367	0.682789
0	C	0.607761	0.685397	0.195071
0	C	0.144723	0.846025	0.0816489
0	C	0.366488	0.158704	0.594596
0	C	0.867183	0.346101	0.474094
0	C	0.644845	0.658655	0.985259
0	C	0.137523	0.921556	0.131068
0	C	0.37357	0.0831558	0.644112
0	C	0.874725	0.421487	0.422869
0	C	0.638421	0.582978	0.936881
0	C	0.188552	0.950376	0.27604
0	C	0.322123	0.0543486	0.788022
0	C	0.823445	0.450159	0.278212
0	C	0.689713	0.554249	0.792337
0	C	0.186678	0.0245936	0.342108
0	C	0.324558	0.980288	0.855486
0	C	0.826014	0.52407	0.209213
0	C	0.688186	0.47994	0.727317
0	C	0.106308	0.0601419	0.281717
0	C	0.404958	0.944702	0.7955
0	C	0.906298	0.55978	0.269612
0	C	0.607768	0.444273	0.78686
0	C	0.0815924	0.0405844	0.0430909
0	C	0.429789	0.964045	0.5569
0	C	0.931159	0.540526	0.508316
0	C	0.582953	0.463719	0.0254977
0	H	0.125421	0.958454	0.695433
0	H	0.38577	0.0468042	0.2097
0	H	0.887835	0.458684	0.857528
0	H	0.626582	0.546701	0.372243
0	H	0.995875	0.0703083	0.786998
0	H	0.515311	0.933992	0.30088
0	H	0.0172465	0.57039	0.763402
0	H	0.498133	0.433452	0.282985
0	H	0.95103	0.0626049	0.0469859
0	H	0.5605	0.941582	0.5603
0	H	0.0617846	0.56285	0.5031
0	H	0.452252	0.441256	0.0246349
0	H	0.0616636	0.181079	0.888365
0	H	0.449082	0.823509	0.402991
0	H	0.950791	0.680943	0.662426
0	H	0.563566	0.322912	0.17988
0	H	0.956696	0.185658	0.945325
0	H	0.554022	0.818492	0.459009
0	H	0.0556643	0.685862	0.60498
0	H	0.458641	0.318166	0.123367
0	H	0.159587	0.154126	0.161648
0	H	0.351399	0.850734	0.676469
0	H	0.852715	0.653669	0.389117
0	H	0.661231	0.350419	0.907053
0	H	0.209624	0.168319	0.531979
0	H	0.301354	0.83691	0.0463138
0	H	0.802341	0.667758	0.0198253
0	H	0.711601	0.336214	0.537427
0	H	0.113544	0.151541	0.653161
0	H	0.397385	0.853896	0.167917
0	H	0.898258	0.650828	0.897436
0	H	0.615648	0.352839	0.415317
0	H	0.170274	0.282305	0.420193
0	H	0.340562	0.722742	0.937505
0	H	0.841712	0.781804	0.129464
0	H	0.672412	0.222276	0.649334
0	H	0.0976987	0.274321	0.628548
0	H	0.413496	0.731103	0.144841
0	H	0.914335	0.773585	0.921204
0	H	0.600222	0.229978	0.439973
0	H	0.96441	0.17586	0.551258
0	H	0.546055	0.829288	0.0662176
0	H	0.0470412	0.675151	0.998154
0	H	0.466327	0.328948	0.517046
0	H	0.956246	0.098016	0.402303
0	H	0.555497	0.906473	0.914133
0	H	0.056466	0.597948	0.14992
0	H	0.457962	0.406461	0.667613
0	H	0.903296	0.172012	0.314868
0	H	0.607622	0.831574	0.830881
0	H	0.108811	0.672659	0.233422
0	H	0.405057	0.332293	0.753164
0	H	0.992824	0.924023	0.303111
0	H	0.518542	0.080989	0.81697
0	H	0.0193342	0.423972	0.248096
0	H	0.493768	0.58003	0.764513
0	H	0.0615566	0.851988	0.558256
0	H	0.451031	0.152966	0.0734259
0	H	0.951865	0.352364	0.994721
0	H	0.56107	0.652795	0.508116
0	H	0.0184361	0.971039	0.691495
0	H	0.492603	0.0332894	0.205279
0	H	0.994874	0.471449	0.859852
0	H	0.519751	0.533086	0.376537
0	H	0.98976	0.85156	0.769745
0	H	0.522566	0.152601	0.285417
0	H	0.0235842	0.351855	0.782995
0	H	0.489666	0.652301	0.295709
0	H	0.210001	0.829394	0.0861139
0	H	0.30119	0.175192	0.595943
0	H	0.801756	0.329896	0.473639
0	H	0.709949	0.675715	0.980607
0	H	0.829975	0.817063	0.581732
0	H	0.667559	0.198101	0.0595365
0	H	0.181434	0.316089	0.975651
0	H	0.3498	0.703231	0.513038
0	H	0.115746	0.816511	0.220492
0	H	0.394685	0.188255	0.734536
0	H	0.894904	0.316085	0.33443
0	H	0.615562	0.687803	0.846157
0	H	0.310814	0.720437	0.473315
0	H	0.176923	0.276934	0.984305
0	H	0.690347	0.226062	0.122937
0	H	0.835809	0.778413	0.563635
0	H	0.236239	0.92025	0.354999
0	H	0.27393	0.0842918	0.865453
0	H	0.775211	0.420031	0.201718
0	H	0.737198	0.584557	0.713204
0	H	0.238639	0.0517511	0.264085
0	H	0.272494	0.952785	0.779236
0	H	0.773774	0.551729	0.284104
0	H	0.740011	0.452912	0.806482
0	H	0.197484	0.0294414	0.521516
0	H	0.314346	0.975904	0.0352351
0	H	0.816188	0.528106	0.0291402
0	H	0.699408	0.474806	0.548267
0	H	0.0580273	0.0428718	0.397664
0	H	0.453212	0.962024	0.911434
0	H	0.95457	0.542536	0.153586
0	H	0.559673	0.461508	0.670306
0	H	0.133657	0.054576	0.933494
0	H	0.377739	0.950093	0.447254
0	H	0.879151	0.554692	0.617895
0	H	0.635162	0.450007	0.134876
0	O	0.0189306	0.301318	0.233679
0	O	0.491205	0.703101	0.748479
0	O	0.992538	0.801315	0.317425
0	O	0.520402	0.202808	0.83245
0	O	0.925228	0.93843	0.0295975
0	O	0.586219	0.0647453	0.54441
0	O	0.0873921	0.438709	0.520717
0	O	0.425938	0.563897	0.0367275
0	O	0.120429	0.759763	0.817122
0	O	0.392889	0.245394	0.332923
0	O	0.893249	0.259718	0.736702
0	O	0.619618	0.745054	0.248854
