#******************************************
#
# CIF file created by Zeo++
# Zeo++ is an open source package to
# analyze microporous materials
#
#*******************************************

_cell_length_a		29.9281(0)
_cell_length_b		6.19857(0)
_cell_length_c		14.4257(0)
_cell_angle_alpha		90(0)
_cell_angle_beta		90(0)
_cell_angle_gamma		90(0)

_symmetry_space_group_name_H-M		'P1'
_symmetry_Int_Tables_number		1
_symmetry_cell_setting		Monoclinic

loop_
_symmetry_equiv_pos_as_xyz
'+x,+y,+z'

loop_
_atom_site_label
_atom_site_type_symbol
_atom_site_fract_x
_atom_site_fract_y
_atom_site_fract_z
0	Br	0.818134	0.0246031	0.717169
0	Br	0.18711	0.0476015	0.710738
0	Br	0.680443	0.535248	0.29888
0	Br	0.312691	0.546704	0.300852
0	Cl	0.919716	0.337906	0.790492
0	Cl	0.0674425	0.768417	0.776028
0	Cl	0.578007	0.856234	0.224461
0	Cl	0.42375	0.243231	0.241498
0	Cl	0.0776547	0.283769	0.427197
0	Cl	0.937082	0.804808	0.44496
0	Cl	0.42228	0.806557	0.586095
0	Cl	0.570779	0.286551	0.591157
0	O	0.791387	0.74639	0.355034
0	O	0.202112	0.337744	0.341988
0	O	0.706339	0.261671	0.660972
0	O	0.300945	0.817799	0.664916
0	O	0.741206	0.244281	0.157176
0	O	0.250499	0.840554	0.156566
0	O	0.75736	0.752087	0.859891
0	O	0.246475	0.329887	0.857793
0	O	0.0694294	0.29888	0.0503418
0	O	0.927616	0.78267	0.0620245
0	O	0.429119	0.786365	0.963561
0	O	0.570247	0.295761	0.969957
0	O	0.770419	0.82512	0.0715281
0	O	0.224692	0.263163	0.0601619
0	O	0.728152	0.333111	0.943718
0	O	0.27532	0.759155	0.937109
0	O	0.0932495	0.290932	0.225536
0	O	0.910776	0.781963	0.252798
0	O	0.405752	0.795953	0.786798
0	O	0.590995	0.28068	0.788546
0	O	0.845603	0.93153	0.927328
0	O	0.144376	0.142772	0.892513
0	O	0.653323	0.449698	0.0926318
0	O	0.3496	0.639859	0.110469
0	O	0.811747	0.43632	0.283404
0	O	0.182883	0.654085	0.273838
0	O	0.686742	0.948632	0.731406
0	O	0.316948	0.138594	0.733953
0	O	0.936932	0.282665	0.144647
0	O	0.062743	0.798601	0.133072
0	O	0.561817	0.786394	0.870691
0	O	0.436483	0.292429	0.887533
0	N	0.917296	0.302352	0.98182
0	N	0.0767232	0.788334	0.965853
0	N	0.581028	0.813364	0.0334952
0	N	0.418957	0.276287	0.0508032
0	C	0.868342	0.270716	0.988462
0	C	0.126101	0.815303	0.970551
0	C	0.630043	0.783769	0.0273889
0	C	0.369849	0.304736	0.0405309
0	C	0.802326	0.558329	0.359836
0	C	0.192821	0.527306	0.348924
0	C	0.695918	0.0730535	0.655503
0	C	0.30857	0.00927871	0.65879
0	C	0.849559	0.397598	0.0675547
0	C	0.144265	0.698378	0.0536226
0	C	0.648707	0.907451	0.947244
0	C	0.353119	0.185267	0.956735
0	C	0.808281	0.424139	0.444067
0	C	0.189365	0.658586	0.434692
0	C	0.690238	0.939463	0.57097
0	C	0.311174	0.142682	0.57351
0	C	0.942677	0.312201	0.897411
0	C	0.0481705	0.78237	0.886504
0	C	0.55542	0.821915	0.117615
0	C	0.445451	0.269117	0.133465
0	C	0.815033	0.360339	0.124246
0	C	0.177645	0.734837	0.113533
0	C	0.683316	0.869434	0.890814
0	C	0.320446	0.221117	0.895037
0	C	0.992192	0.295423	0.0161315
0	C	0.00311654	0.789432	0.0142605
0	C	0.506236	0.794503	0.99858
0	C	0.49374	0.287694	0.0115488
0	C	0.824061	0.523332	0.52507
0	C	0.174152	0.558416	0.516026
0	C	0.673888	0.0369766	0.490105
0	C	0.326341	0.0467054	0.491255
0	C	0.987946	0.3072	0.917628
0	C	0.0038069	0.783339	0.914994
0	C	0.510243	0.809591	0.0970827
0	C	0.49051	0.276701	0.110357
0	C	0.0307749	0.294995	0.0768378
0	C	0.96709	0.786856	0.0820818
0	C	0.467826	0.789451	0.937505
0	C	0.531107	0.291489	0.947358
0	C	0.0176035	0.289915	0.176279
0	C	0.983611	0.791198	0.180182
0	C	0.481205	0.790895	0.838031
0	C	0.516284	0.28969	0.848242
0	C	0.828193	0.402954	0.606242
0	C	0.172489	0.675416	0.598545
0	C	0.669875	0.915511	0.409135
0	C	0.327717	0.167656	0.409731
0	C	0.785979	0.164725	0.136761
0	C	0.207241	0.92777	0.129327
0	C	0.712359	0.673484	0.878832
0	C	0.290978	0.413725	0.877909
0	C	0.775239	0.0157593	0.0546269
0	C	0.22031	0.0709995	0.0467829
0	C	0.722436	0.522999	0.960893
0	C	0.279895	0.569983	0.957029
0	C	0.815644	0.185651	0.604964
0	C	0.186723	0.890212	0.597968
0	C	0.683082	0.699077	0.410386
0	C	0.313082	0.381849	0.412035
0	C	0.0535623	0.290709	0.245352
0	C	0.95127	0.788907	0.25781
0	C	0.445526	0.795042	0.768333
0	C	0.550887	0.286065	0.775504
0	C	0.860915	0.0233	0.993724
0	C	0.134217	0.0627551	0.96575
0	C	0.637864	0.536256	0.0251047
0	C	0.362415	0.552853	0.0406407
0	C	0.800562	0.0841889	0.524545
0	C	0.201121	0.993134	0.517305
0	C	0.69884	0.599518	0.490726
0	C	0.298356	0.480003	0.493534
0	C	0.0378303	0.285144	0.342887
0	C	0.972114	0.800057	0.352697
0	C	0.461787	0.800365	0.670733
0	C	0.532836	0.28699	0.678336
0	C	0.797324	0.204114	0.442838
0	C	0.202037	0.876522	0.434507
0	C	0.701983	0.720319	0.572178
0	C	0.297824	0.359634	0.575366
0	C	0.803427	0.53669	0.192671
0	C	0.188222	0.555406	0.181761
0	C	0.694945	0.0464776	0.822648
0	C	0.310537	0.0422598	0.82614
0	C	0.993285	0.283729	0.367418
0	C	0.0174258	0.803652	0.367036
0	C	0.506341	0.797446	0.64704
0	C	0.487837	0.291315	0.658526
0	C	0.97352	0.284209	0.204378
0	C	0.0287358	0.798486	0.198611
0	C	0.525398	0.790682	0.810606
0	C	0.471738	0.290909	0.824651
0	C	0.714116	0.0916269	0.208052
0	C	0.27883	0.99176	0.20536
0	C	0.784872	0.597516	0.810946
0	C	0.218008	0.479668	0.808476
0	C	0.959275	0.277609	0.300283
0	C	0.0476735	0.80916	0.292419
0	C	0.540109	0.795898	0.714989
0	C	0.455343	0.290547	0.728859
0	C	0.948549	0.290707	0.0520733
0	C	0.0480833	0.794025	0.0418431
0	C	0.549989	0.794671	0.963124
0	C	0.449577	0.288108	0.979028
0	C	0.911389	0.270871	0.322938
0	C	0.0957548	0.820177	0.306441
0	C	0.588097	0.795455	0.693402
0	C	0.407475	0.292903	0.709571
0	H	0.0153863	0.312562	0.869435
0	H	0.974783	0.778895	0.870968
0	H	0.482725	0.812825	0.145117
0	H	0.518512	0.272797	0.157188
0	H	0.868077	0.552042	0.0762566
0	H	0.125535	0.543859	0.0633677
0	H	0.630041	0.0614424	0.93759
0	H	0.372074	0.0311228	0.948613
0	H	0.791522	0.912643	0.523638
0	H	0.211512	0.162688	0.517545
0	H	0.708584	0.429015	0.491599
0	H	0.287522	0.648735	0.494886
0	H	0.786287	0.125521	0.378557
0	H	0.212507	0.956315	0.370085
0	H	0.713477	0.643055	0.636406
0	H	0.287139	0.43577	0.64041
0	H	0.83211	0.695833	0.524635
0	H	0.164318	0.388402	0.514842
0	H	0.665263	0.208678	0.490403
0	H	0.336431	0.876945	0.4911
0	H	0.840605	0.478545	0.669567
0	H	0.160568	0.599449	0.662245
0	H	0.656961	0.989911	0.345979
0	H	0.339792	0.0947262	0.345513
0	H	0.983643	0.281955	0.440865
0	H	0.0309287	0.808603	0.437953
0	H	0.516349	0.799615	0.573816
0	H	0.476466	0.292534	0.586
0	H	0.824578	0.682252	0.18791
0	H	0.165356	0.415256	0.178388
0	H	0.673683	0.191914	0.827884
0	H	0.332991	0.900773	0.831056
0	H	0.76746	0.581409	0.188889
0	H	0.223612	0.501757	0.175391
0	H	0.730879	0.0913607	0.826701
0	H	0.274866	0.991492	0.83055
0	H	0.852523	0.334414	0.922402
0	H	0.141113	0.737267	0.906703
0	H	0.645595	0.852416	0.0928439
0	H	0.35325	0.231702	0.103723
0	H	0.768776	0.0886603	0.986265
0	H	0.228468	0.991194	0.980648
0	H	0.727735	0.594804	0.0299222
0	H	0.272774	0.502878	0.0261804
0	H	0.799134	0.070401	0.19733
0	H	0.193086	0.0258888	0.187787
0	H	0.699566	0.580453	0.817541
0	H	0.304097	0.50237	0.81562
0	H	0.87013	0.945543	0.0598324
0	H	0.129436	0.152368	0.0311857
0	H	0.628694	0.453604	0.960003
0	H	0.36993	0.636624	0.974794
0	H	0.680123	0.151622	0.194811
0	H	0.312438	0.926931	0.191503
0	H	0.818807	0.654808	0.827093
0	H	0.18441	0.417676	0.824953
0	H	0.723471	0.0970466	0.281402
0	H	0.270183	0.988931	0.279148
0	H	0.776723	0.603537	0.737003
0	H	0.225862	0.47295	0.734424
0	H	0.717583	0.926585	0.181427
0	H	0.276049	0.15649	0.178358
0	H	0.780512	0.432378	0.836873
0	H	0.221431	0.645911	0.833509
0	H	0.892335	0.405279	0.289984
0	H	0.113839	0.685079	0.271138
0	H	0.606075	0.932947	0.727094
0	H	0.389683	0.153337	0.742667
0	H	0.904035	0.275415	0.397486
0	H	0.106362	0.820267	0.379562
0	H	0.595823	0.802831	0.619044
0	H	0.398698	0.289374	0.635467
0	H	0.894931	0.122894	0.294988
0	H	0.111039	0.967693	0.274222
0	H	0.605413	0.65078	0.721789
0	H	0.390188	0.436253	0.739992
