#******************************************
#
# CIF file created by Zeo++
# Zeo++ is an open source package to
# analyze microporous materials
#
#*******************************************

_cell_length_a		26.0883(0)
_cell_length_b		14.99(0)
_cell_length_c		18.3891(0)
_cell_angle_alpha		90(0)
_cell_angle_beta		125.743(0)
_cell_angle_gamma		90(0)

_symmetry_space_group_name_H-M		'P1'
_symmetry_Int_Tables_number		1
_symmetry_cell_setting		Monoclinic

loop_
_symmetry_equiv_pos_as_xyz
'+x,+y,+z'

loop_
_atom_site_label
_atom_site_type_symbol
_atom_site_fract_x
_atom_site_fract_y
_atom_site_fract_z
0	C	0.285588	0.710976	0.807628
0	C	0.737222	0.710286	0.690024
0	C	0.732103	0.315391	0.190323
0	C	0.281869	0.315158	0.309335
0	C	0.78784	0.206795	0.806235
0	C	0.234936	0.206906	0.691299
0	C	0.230741	0.819123	0.192639
0	C	0.783235	0.819142	0.30718
0	C	0.275983	0.799635	0.837642
0	C	0.746854	0.798998	0.660113
0	C	0.741756	0.226697	0.160411
0	C	0.272185	0.226451	0.339159
0	C	0.77828	0.295311	0.836592
0	C	0.244539	0.295449	0.661059
0	C	0.24027	0.730588	0.162274
0	C	0.773641	0.730583	0.337393
0	C	0.229138	0.808147	0.853204
0	C	0.793615	0.807534	0.644371
0	C	0.788641	0.21816	0.144932
0	C	0.225357	0.217915	0.35477
0	C	0.731434	0.30368	0.852165
0	C	0.291306	0.303797	0.645311
0	C	0.28706	0.722186	0.146596
0	C	0.726905	0.722216	0.353199
0	C	0.217709	0.891774	0.876132
0	C	0.805002	0.891173	0.621414
0	C	0.800129	0.134503	0.12213
0	C	0.213893	0.134252	0.377583
0	C	0.720035	0.387165	0.875358
0	C	0.302692	0.387274	0.622092
0	C	0.29845	0.638667	0.123446
0	C	0.715497	0.638709	0.376336
0	H	0.182754	0.899597	0.890018
0	H	0.839861	0.898982	0.607336
0	H	0.835095	0.126669	0.108267
0	H	0.179005	0.126447	0.391609
0	H	0.685031	0.394815	0.889148
0	H	0.337599	0.394876	0.608101
0	H	0.333416	0.630982	0.10959
0	H	0.680604	0.631086	0.390347
0	C	0.253137	0.965565	0.883672
0	C	0.769556	0.964909	0.613891
0	C	0.764743	0.0607033	0.114672
0	C	0.249278	0.060479	0.385004
0	C	0.755617	0.46096	0.883437
0	C	0.267109	0.461037	0.614026
0	C	0.262914	0.564878	0.115495
0	C	0.751014	0.56492	0.384264
0	H	0.244307	0.0303944	0.90166
0	H	0.778338	0.0297205	0.595808
0	H	0.77362	0.99584	0.0967992
0	H	0.240407	0.995628	0.402912
0	H	0.746834	0.525638	0.901711
0	H	0.275855	0.525689	0.595652
0	H	0.27169	0.500172	0.0972611
0	H	0.742239	0.500243	0.402556
0	C	0.299837	0.958426	0.869397
0	C	0.722873	0.95775	0.628221
0	C	0.71801	0.0678629	0.128882
0	C	0.296004	0.0676449	0.370759
0	C	0.802461	0.453948	0.86945
0	C	0.220283	0.454041	0.62807
0	C	0.216108	0.571927	0.129554
0	C	0.797812	0.571939	0.370163
0	H	0.326177	0.0176267	0.875274
0	H	0.696478	0.0169358	0.622182
0	H	0.691702	0.00865213	0.123058
0	H	0.322334	0.00842384	0.376686
0	H	0.829095	0.513078	0.876077
0	H	0.19362	0.51318	0.621295
0	H	0.189494	0.512806	0.122994
0	H	0.824421	0.512776	0.376818
0	C	0.312092	0.87481	0.847258
0	C	0.71073	0.874166	0.65055
0	C	0.705694	0.151508	0.150893
0	C	0.308258	0.15126	0.348631
0	C	0.81453	0.370492	0.846755
0	C	0.208284	0.370637	0.650931
0	C	0.204055	0.655411	0.152226
0	C	0.809842	0.655374	0.347393
0	N	0.361271	0.865227	0.836011
0	N	0.661621	0.864577	0.661978
0	N	0.656516	0.161108	0.162143
0	N	0.357436	0.160867	0.337339
0	N	0.863704	0.361222	0.83545
0	N	0.159133	0.361427	0.662331
0	N	0.154942	0.664732	0.163647
0	N	0.858986	0.664609	0.335978
0	C	0.381922	0.944158	0.809997
0	C	0.64055	0.9436	0.687288
0	C	0.635859	0.0821538	0.188117
0	C	0.378288	0.0819148	0.311619
0	C	0.883964	0.44069	0.809501
0	C	0.138537	0.441032	0.687649
0	C	0.134569	0.585253	0.189404
0	C	0.879458	0.585044	0.31043
0	H	0.341733	0.992239	0.772327
0	H	0.680453	0.992222	0.724328
0	H	0.676101	0.0341733	0.225973
0	H	0.338297	0.0334454	0.274484
0	H	0.843256	0.487896	0.771082
0	H	0.179061	0.488617	0.725638
0	H	0.175238	0.537985	0.227826
0	H	0.838882	0.537552	0.272394
0	H	0.391961	0.922689	0.761428
0	H	0.630765	0.922433	0.736204
0	H	0.625651	0.103619	0.236509
0	H	0.388026	0.103211	0.262686
0	H	0.894737	0.419698	0.761632
0	H	0.12787	0.420347	0.735703
0	H	0.123737	0.60621	0.23722
0	H	0.890086	0.605803	0.262352
0	C	0.439684	0.990647	0.891318
0	C	0.582387	0.989105	0.605671
0	C	0.578241	0.0354948	0.106756
0	C	0.436409	0.036102	0.393019
0	C	0.940832	0.488556	0.890846
0	C	0.0814213	0.488248	0.606064
0	C	0.0777064	0.537503	0.107955
0	C	0.936551	0.537636	0.391875
0	H	0.428398	0.0133712	0.938285
0	H	0.593327	0.0111831	0.558137
0	H	0.589646	0.012854	0.0598984
0	H	0.425543	0.0141386	0.440663
0	H	0.92885	0.510746	0.937155
0	H	0.0933129	0.510225	0.559557
0	H	0.089661	0.515517	0.0615753
0	H	0.92472	0.515773	0.438479
0	H	0.479277	0.942824	0.929954
0	H	0.542959	0.94093	0.567693
0	H	0.538572	0.0831765	0.0679958
0	H	0.475991	0.0840555	0.430963
0	H	0.981	0.441846	0.930261
0	H	0.0413909	0.44132	0.5668
0	H	0.0375302	0.584231	0.0686692
0	H	0.976691	0.584413	0.431083
0	C	0.459454	0.0703374	0.861485
0	C	0.562468	0.069243	0.634782
0	C	0.558523	0.955684	0.136523
0	C	0.455962	0.955796	0.3636
0	C	0.959813	0.56901	0.860766
0	C	0.0622001	0.568878	0.635617
0	C	0.0587176	0.456886	0.137835
0	C	0.955507	0.456865	0.362128
0	H	0.500654	0.104286	0.918988
0	H	0.521493	0.103144	0.576889
0	H	0.51742	0.921639	0.0789723
0	H	0.496979	0.921779	0.421322
0	H	0.00115033	0.602928	0.91806
0	H	0.0210596	0.602801	0.578014
0	H	0.0174528	0.422968	0.0804366
0	H	0.996706	0.4229	0.419601
0	H	0.421373	0.120024	0.826183
0	H	0.600586	0.118874	0.670178
0	H	0.596668	0.906102	0.171942
0	H	0.417731	0.90631	0.328412
0	H	0.921498	0.618417	0.826287
0	H	0.100509	0.618287	0.670336
0	H	0.0970607	0.407525	0.172347
0	H	0.917137	0.407533	0.327639
0	H	0.47168	0.0506081	0.816006
0	H	0.549813	0.0500056	0.679881
0	H	0.546147	0.975306	0.181859
0	H	0.468382	0.974873	0.318199
0	H	0.971394	0.550187	0.814363
0	H	0.050189	0.550227	0.681571
0	H	0.0469996	0.475536	0.184128
0	H	0.967295	0.475366	0.315893
0	C	0.352518	0.702701	0.834748
0	C	0.670241	0.702027	0.662792
0	C	0.665188	0.323639	0.163224
0	C	0.348838	0.323438	0.336568
0	C	0.854782	0.198616	0.833365
0	C	0.167977	0.198776	0.664174
0	C	0.163809	0.827326	0.165549
0	C	0.850183	0.827274	0.334259
0	C	0.386189	0.779548	0.840733
0	C	0.636717	0.778888	0.657246
0	C	0.631556	0.246781	0.157327
0	C	0.382324	0.246567	0.342034
0	C	0.888471	0.275574	0.839548
0	C	0.134429	0.275771	0.658376
0	C	0.130118	0.750379	0.159378
0	C	0.883697	0.750273	0.339969
0	C	0.444757	0.770592	0.853464
0	C	0.57824	0.769916	0.644807
0	C	0.573007	0.255741	0.144652
0	C	0.44076	0.255563	0.354353
0	C	0.946956	0.266678	0.852062
0	C	0.0760581	0.266875	0.646225
0	C	0.0715966	0.759287	0.146759
0	C	0.942057	0.759184	0.352086
0	H	0.47164	0.828794	0.858928
0	H	0.551496	0.828073	0.639811
0	H	0.546152	0.197545	0.139278
0	H	0.467477	0.197399	0.359278
0	H	0.9739	0.324891	0.857826
0	H	0.049252	0.325054	0.640915
0	H	0.0446355	0.701078	0.14096
0	H	0.96884	0.700996	0.357347
0	C	0.469091	0.685543	0.860915
0	C	0.553804	0.684878	0.637044
0	C	0.548648	0.340786	0.13713
0	C	0.465179	0.340618	0.362094
0	C	0.971174	0.18164	0.858979
0	C	0.0517626	0.181846	0.639096
0	C	0.047366	0.844322	0.139795
0	C	0.966361	0.844217	0.359234
0	H	0.514152	0.679016	0.869712
0	H	0.508837	0.678317	0.628535
0	H	0.503596	0.347309	0.128361
0	H	0.510116	0.347196	0.370517
0	H	0.0161338	0.175166	0.867471
0	H	0.00690616	0.175358	0.630923
0	H	0.00238138	0.8508	0.131225
0	H	0.0112089	0.850714	0.36738
0	C	0.438066	0.609118	0.859112
0	C	0.584599	0.608504	0.63818
0	C	0.579642	0.417219	0.138843
0	C	0.434415	0.416988	0.361057
0	C	0.940179	0.105165	0.857102
0	C	0.0825219	0.105401	0.640329
0	C	0.0783932	0.920795	0.141731
0	C	0.935613	0.920652	0.358055
0	H	0.459153	0.544041	0.867316
0	H	0.563361	0.543473	0.629543
0	H	0.558529	0.482282	0.130581
0	H	0.455657	0.482026	0.3697
0	H	0.961154	0.0400811	0.864912
0	H	0.0614074	0.0403605	0.63216
0	H	0.0574103	0.985878	0.133896
0	H	0.956735	0.985694	0.366239
0	C	0.379809	0.617447	0.847744
0	C	0.642841	0.616807	0.649479
0	C	0.637897	0.408895	0.150209
0	C	0.376209	0.408678	0.349852
0	C	0.882093	0.113374	0.846265
0	C	0.140566	0.113564	0.651015
0	C	0.136506	0.912573	0.152653
0	C	0.877589	0.91249	0.347418
0	N	0.348432	0.541424	0.849924
0	N	0.673999	0.540772	0.646802
0	N	0.669295	0.484917	0.148039
0	N	0.345051	0.484695	0.352566
0	N	0.851102	0.0372485	0.849137
0	N	0.171308	0.0374074	0.647616
0	N	0.167552	0.988697	0.14988
0	N	0.846852	0.988635	0.350853
0	C	0.365487	0.450767	0.837143
0	C	0.656898	0.450043	0.6594
0	C	0.652304	0.575573	0.160933
0	C	0.361981	0.575413	0.339639
0	C	0.868577	0.946534	0.837107
0	C	0.153815	0.946633	0.659546
0	C	0.150038	0.0794198	0.161825
0	C	0.86425	0.0794033	0.338737
0	H	0.379093	0.455786	0.789965
0	H	0.64319	0.45497	0.706473
0	H	0.638623	0.570517	0.208023
0	H	0.375663	0.570394	0.292546
0	H	0.881858	0.951285	0.789536
0	H	0.140467	0.951324	0.707046
0	H	0.13668	0.0746825	0.209308
0	H	0.877554	0.0746601	0.291191
0	H	0.32243	0.407707	0.802155
0	H	0.69997	0.406984	0.694447
0	H	0.695407	0.618556	0.196055
0	H	0.318835	0.618325	0.304479
0	H	0.825813	0.902876	0.80288
0	H	0.196606	0.902998	0.693843
0	H	0.192806	0.123081	0.196115
0	H	0.821423	0.122965	0.304405
0	C	0.418555	0.40746	0.925777
0	C	0.603894	0.406642	0.570748
0	C	0.599323	0.618999	0.0723102
0	C	0.414931	0.619068	0.428177
0	C	0.922154	0.904134	0.925934
0	C	0.100292	0.904056	0.570756
0	C	0.0965057	0.121786	0.0729415
0	C	0.917772	0.122106	0.427457
0	H	0.458474	0.454475	0.966133
0	H	0.56402	0.453654	0.53021
0	H	0.559416	0.572006	0.0318108
0	H	0.454875	0.572184	0.468809
0	H	0.961691	0.951811	0.965817
0	H	0.0607762	0.951685	0.530667
0	H	0.0570359	0.0740367	0.0329663
0	H	0.95731	0.0745162	0.467588
0	H	0.401477	0.392346	0.967284
0	H	0.621073	0.391246	0.529411
0	H	0.61649	0.634223	0.0309313
0	H	0.397729	0.634491	0.46948
0	H	0.905434	0.888638	0.967804
0	H	0.117091	0.888226	0.529039
0	H	0.113306	0.137403	0.0311908
0	H	0.900973	0.137988	0.469167
0	C	0.44117	0.322344	0.907288
0	C	0.58124	0.321694	0.589455
0	C	0.576647	0.704045	0.090807
0	C	0.43744	0.704035	0.409262
0	C	0.945428	0.819459	0.907853
0	C	0.0770408	0.819576	0.589193
0	C	0.0730616	0.206355	0.0909024
0	C	0.94097	0.206566	0.408899
0	H	0.474958	0.286175	0.969708
0	H	0.54786	0.284959	0.52728
0	H	0.54288	0.740226	0.0283848
0	H	0.470919	0.740785	0.471385
0	H	0.980933	0.785247	0.970724
0	H	0.0418804	0.784749	0.526587
0	H	0.0376076	0.240543	0.0279823
0	H	0.976203	0.241391	0.471472
0	H	0.464885	0.336545	0.875309
0	H	0.557114	0.336191	0.620788
0	H	0.552878	0.689753	0.122691
0	H	0.461389	0.689561	0.377672
0	H	0.967283	0.833922	0.873297
0	H	0.0548258	0.834403	0.623184
0	H	0.0510633	0.191773	0.125239
0	H	0.963076	0.191723	0.374761
0	H	0.401801	0.276615	0.863451
0	H	0.620669	0.276286	0.633971
0	H	0.616	0.749779	0.134722
0	H	0.397945	0.749396	0.364861
0	H	0.906722	0.772009	0.86649
0	H	0.11584	0.77244	0.631232
0	H	0.111706	0.253862	0.132385
0	H	0.902149	0.253694	0.366937
0	C	0.269648	0.634637	0.84524
0	C	0.753179	0.634032	0.652381
0	C	0.748076	0.391698	0.152731
0	C	0.265829	0.391409	0.346871
0	C	0.771993	0.130332	0.843884
0	C	0.25076	0.130495	0.653595
0	C	0.246582	0.895579	0.154975
0	C	0.767408	0.895531	0.344893
0	C	0.299753	0.551142	0.862088
0	C	0.722925	0.550598	0.635141
0	C	0.717983	0.475196	0.135894
0	C	0.29604	0.474873	0.364055
0	C	0.802353	0.0469698	0.861144
0	C	0.220275	0.047191	0.636041
0	C	0.216255	0.978957	0.137784
0	C	0.797862	0.978854	0.362383
0	C	0.281281	0.478572	0.890963
0	C	0.741382	0.478106	0.606167
0	C	0.736498	0.547763	0.107064
0	C	0.277452	0.547397	0.392816
0	C	0.78419	0.974481	0.890549
0	C	0.238443	0.974731	0.606616
0	C	0.23441	0.0514475	0.108358
0	C	0.779642	0.0513306	0.391719
0	H	0.304082	0.41385	0.904368
0	H	0.71847	0.413445	0.592462
0	H	0.713695	0.612484	0.0936376
0	H	0.300345	0.612075	0.406515
0	H	0.807112	0.909805	0.904071
0	H	0.215432	0.910105	0.592846
0	H	0.211503	0.116129	0.0948833
0	H	0.802639	0.115973	0.405462
0	C	0.233694	0.490387	0.902899
0	C	0.789064	0.489909	0.594423
0	C	0.784112	0.535927	0.0951878
0	C	0.229662	0.535619	0.404342
0	C	0.736833	0.98623	0.902938
0	C	0.285913	0.986427	0.594444
0	C	0.281712	0.0396741	0.0958661
0	C	0.732148	0.0396458	0.40384
0	H	0.219216	0.433993	0.924816
0	H	0.803535	0.433537	0.572448
0	H	0.798621	0.592314	0.0733049
0	H	0.215075	0.592024	0.426124
0	H	0.722668	0.92995	0.925458
0	H	0.300091	0.930129	0.571942
0	H	0.295871	0.0959423	0.0733234
0	H	0.717913	0.0959553	0.426255
0	C	0.20393	0.572595	0.887652
0	C	0.818882	0.572099	0.609864
0	C	0.813866	0.453702	0.110442
0	C	0.199885	0.453406	0.388939
0	C	0.70691	0.068352	0.887463
0	C	0.315891	0.068519	0.610069
0	C	0.311583	0.957517	0.111247
0	C	0.702217	0.957533	0.388295
0	H	0.168071	0.579752	0.89984
0	H	0.85468	0.579348	0.597568
0	H	0.849737	0.446523	0.0982802
0	H	0.163998	0.446179	0.401065
0	H	0.671294	0.0755674	0.900109
0	H	0.351474	0.0757851	0.597361
0	H	0.347145	0.950283	0.0985007
0	H	0.666606	0.950297	0.400945
0	C	0.222429	0.645671	0.859714
0	C	0.800385	0.645121	0.637864
0	C	0.795336	0.380638	0.138339
0	C	0.21852	0.380332	0.361189
0	C	0.724959	0.141285	0.85878
0	C	0.297811	0.14145	0.63871
0	C	0.29355	0.884593	0.139953
0	C	0.720355	0.884567	0.359775
0	N	0.193378	0.731013	0.842651
0	N	0.829389	0.730471	0.654798
0	N	0.824391	0.295294	0.155457
0	N	0.189573	0.294961	0.344327
0	N	0.695711	0.226516	0.841556
0	N	0.327011	0.226678	0.655767
0	N	0.322766	0.79934	0.15711
0	N	0.691212	0.799315	0.342829
0	C	0.135505	0.741189	0.840027
0	C	0.887289	0.740728	0.657479
0	C	0.882388	0.285081	0.158399
0	C	0.131537	0.284689	0.341296
0	C	0.637661	0.236638	0.838493
0	C	0.385113	0.236843	0.658948
0	C	0.380686	0.789173	0.159847
0	C	0.633206	0.789103	0.339883
0	H	0.104102	0.683091	0.802987
0	H	0.918715	0.682659	0.694602
0	H	0.91377	0.343187	0.195494
0	H	0.100109	0.342707	0.304011
0	H	0.606257	0.178677	0.801058
0	H	0.416542	0.178928	0.696518
0	H	0.412158	0.847096	0.197233
0	H	0.601716	0.846972	0.302335
0	H	0.109438	0.800976	0.798414
0	H	0.913284	0.80057	0.699074
0	H	0.90839	0.225289	0.200071
0	H	0.105633	0.224803	0.299719
0	H	0.611799	0.296634	0.797094
0	H	0.410892	0.296916	0.700292
0	H	0.406569	0.729137	0.201151
0	H	0.607418	0.728996	0.298617
0	C	0.148715	0.749322	0.93283
0	C	0.874367	0.748835	0.564854
0	C	0.869384	0.276876	0.0657308
0	C	0.144221	0.276667	0.433776
0	C	0.650295	0.244358	0.930964
0	C	0.372795	0.244461	0.566669
0	C	0.367806	0.781485	0.0672207
0	C	0.645713	0.781505	0.432282
0	H	0.170314	0.686938	0.971799
0	H	0.852985	0.686383	0.525938
0	H	0.847931	0.339289	0.0267515
0	H	0.165613	0.339105	0.472718
0	H	0.672707	0.182431	0.970369
0	H	0.350547	0.182475	0.527309
0	H	0.34542	0.843459	0.0278987
0	H	0.668035	0.843476	0.471633
0	H	0.184693	0.801651	0.973293
0	H	0.838291	0.800953	0.524039
0	H	0.833356	0.224644	0.0251567
0	H	0.180206	0.224472	0.474681
0	H	0.685418	0.297632	0.971347
0	H	0.337626	0.297585	0.525936
0	H	0.332578	0.728312	0.0268843
0	H	0.680892	0.728355	0.472923
0	C	0.088245	0.770623	0.924139
0	C	0.935064	0.770413	0.574246
0	C	0.929919	0.255313	0.0746837
0	C	0.0833972	0.255273	0.424089
0	C	0.589268	0.263329	0.921531
0	C	0.43408	0.263554	0.576837
0	C	0.428696	0.762314	0.0763324
0	C	0.584517	0.762441	0.422368
0	H	0.0981068	0.777692	0.99083
0	H	0.925555	0.777878	0.507831
0	H	0.920185	0.248405	0.00805419
0	H	0.0927076	0.248101	0.490407
0	H	0.598714	0.270072	0.988
0	H	0.425019	0.270656	0.510661
0	H	0.419101	0.755805	0.00975525
0	H	0.593653	0.755654	0.488612
0	H	0.0527349	0.718089	0.888697
0	H	0.970544	0.71784	0.609665
0	H	0.965563	0.307637	0.110432
0	H	0.0479124	0.307777	0.388332
0	H	0.554597	0.209788	0.886114
0	H	0.468665	0.209914	0.612221
0	H	0.463534	0.815641	0.111902
0	H	0.549829	0.81592	0.386773
0	H	0.0672518	0.83376	0.888888
0	H	0.955929	0.833472	0.609769
0	H	0.950675	0.192016	0.109733
0	H	0.0626163	0.19211	0.388756
0	H	0.56738	0.32597	0.885844
0	H	0.455899	0.326088	0.612826
0	H	0.450438	0.699488	0.1117
0	H	0.562782	0.699745	0.386699
0	C	0.243143	0.706524	0.709217
0	C	0.779161	0.705887	0.788464
0	C	0.774579	0.319829	0.288747
0	C	0.239932	0.319571	0.210889
0	C	0.745311	0.202972	0.70775
0	C	0.277002	0.202976	0.789791
0	C	0.273289	0.822914	0.291125
0	C	0.741163	0.823127	0.208696
0	C	0.2095	0.702228	0.628389
0	C	0.811587	0.701816	0.86929
0	C	0.8083	0.324029	0.369585
0	C	0.207466	0.323657	0.130058
0	C	0.711552	0.199639	0.626857
0	C	0.309594	0.199563	0.870668
0	C	0.307045	0.826184	0.372018
0	C	0.708582	0.8266	0.127819
0	C	0.17048	0.698898	0.53339
0	C	0.848586	0.698318	0.964198
0	C	0.847407	0.327195	0.46459
0	C	0.170428	0.327138	0.0351552
0	C	0.672022	0.196585	0.531815
0	C	0.347171	0.196129	0.965648
0	C	0.346559	0.829206	0.467067
0	C	0.67105	0.830016	0.0328475
0	C	0.182888	0.756215	0.484653
0	C	0.834195	0.755609	0.0107343
0	C	0.835022	0.269813	0.513308
0	C	0.185027	0.270211	0.988626
0	C	0.684495	0.252425	0.482219
0	C	0.33274	0.251865	0.0131219
0	C	0.333975	0.773494	0.516614
0	C	0.685783	0.774641	0.985502
0	H	0.222581	0.802425	0.520329
0	H	0.794772	0.802071	0.973459
0	H	0.795279	0.223699	0.477619
0	H	0.224649	0.224062	0.0259068
0	H	0.724739	0.297742	0.5171
0	H	0.292748	0.297495	0.976641
0	H	0.293678	0.728283	0.481711
0	H	0.725972	0.729353	0.0220759
0	C	0.144323	0.753802	0.391188
0	C	0.870412	0.752858	0.104107
0	C	0.873678	0.272034	0.606783
0	C	0.148767	0.272879	0.895247
0	C	0.645289	0.24963	0.388733
0	C	0.369648	0.248594	0.106556
0	C	0.373159	0.77629	0.610104
0	C	0.648913	0.777807	0.892068
0	H	0.153812	0.798313	0.353325
0	H	0.859464	0.79748	0.140302
0	H	0.864189	0.227465	0.644604
0	H	0.159881	0.228516	0.859074
0	H	0.654817	0.292966	0.350178
0	H	0.358657	0.291972	0.143484
0	H	0.363548	0.733049	0.648624
0	H	0.660124	0.734685	0.855233
0	C	0.0933337	0.694589	0.345607
0	C	0.920919	0.69308	0.151644
0	C	0.92475	0.331123	0.652403
0	C	0.0979759	0.332196	0.847686
0	C	0.5936	0.191553	0.343922
0	C	0.420902	0.189928	0.153288
0	C	0.424924	0.834242	0.654952
0	C	0.597378	0.835984	0.845215
0	H	0.0630782	0.693907	0.272556
0	H	0.949346	0.692054	0.224642
0	H	0.955075	0.331658	0.725456
0	H	0.0695102	0.333155	0.774694
0	H	0.56294	0.190493	0.270878
0	H	0.449774	0.188428	0.226291
0	H	0.455555	0.835312	0.727995
0	H	0.568522	0.837385	0.772205
0	C	0.0812097	0.63703	0.393725
0	C	0.934925	0.635503	0.105636
0	C	0.93685	0.388746	0.604296
0	C	0.083728	0.389396	0.89367
0	C	0.581319	0.135571	0.392878
0	C	0.435062	0.134016	0.106381
0	C	0.437311	0.890089	0.606024
0	C	0.582898	0.891528	0.891994
0	H	0.041841	0.590345	0.35837
0	H	0.973895	0.588384	0.142658
0	H	0.976287	0.435331	0.639681
0	H	0.0445181	0.436136	0.856617
0	H	0.541392	0.0897687	0.358221
0	H	0.474639	0.0877635	0.142668
0	H	0.477302	0.935787	0.640708
0	H	0.543089	0.937388	0.855599
0	C	0.119476	0.63894	0.487229
0	C	0.899132	0.637853	0.0122436
0	C	0.898491	0.387032	0.51079
0	C	0.119581	0.387133	0.987071
0	C	0.620192	0.1379	0.486355
0	C	0.398583	0.136903	0.012974
0	C	0.398471	0.88776	0.512553
0	C	0.619351	0.888756	0.9854
0	H	0.109913	0.593634	0.524812
0	H	0.910199	0.592695	0.976294
0	H	0.908038	0.432388	0.473221
0	H	0.10832	0.431976	0.022988
0	H	0.610483	0.0937401	0.524547
0	H	0.409775	0.092921	0.976354
0	H	0.408252	0.931813	0.474367
0	H	0.60791	0.932444	0.0219139
