#******************************************
#
# CIF file created by Zeo++
# Zeo++ is an open source package to
# analyze microporous materials
#
#*******************************************

_cell_length_a		27.2597(0)
_cell_length_b		13.3716(0)
_cell_length_c		18.7065(0)
_cell_angle_alpha		90(0)
_cell_angle_beta		130.364(0)
_cell_angle_gamma		90(0)

_symmetry_space_group_name_H-M		'P1'
_symmetry_Int_Tables_number		1
_symmetry_cell_setting		Monoclinic

loop_
_symmetry_equiv_pos_as_xyz
'+x,+y,+z'

loop_
_atom_site_label
_atom_site_type_symbol
_atom_site_fract_x
_atom_site_fract_y
_atom_site_fract_z
0	C	0.970619	0.104103	0.688595
0	C	0.130425	0.0992543	0.842816
0	C	0.124299	0.863406	0.340522
0	C	0.964461	0.867258	0.18669
0	C	0.46957	0.599939	0.688696
0	C	0.628978	0.596929	0.840793
0	C	0.625201	0.366851	0.340701
0	C	0.465772	0.369565	0.188579
0	C	0.980023	0.155989	0.569012
0	C	0.12235	0.151175	0.963774
0	C	0.115421	0.811909	0.460688
0	C	0.972479	0.815057	0.0657067
0	C	0.476329	0.64401	0.565254
0	C	0.622643	0.643248	0.96455
0	C	0.618485	0.323144	0.464246
0	C	0.472139	0.322881	0.0649341
0	C	0.955367	0.0811478	0.499858
0	C	0.144001	0.0750471	0.0308554
0	C	0.14003	0.886962	0.529661
0	C	0.950695	0.891037	0.998445
0	C	0.452792	0.565937	0.499249
0	C	0.642956	0.564801	0.0291172
0	C	0.64197	0.401362	0.530118
0	C	0.451782	0.401316	0.000328944
0	C	0.932509	0.110515	0.410876
0	C	0.166938	0.103435	0.120068
0	C	0.163166	0.857799	0.618826
0	C	0.927871	0.862506	0.909326
0	C	0.427162	0.59119	0.408043
0	C	0.666685	0.589865	0.119433
0	C	0.667658	0.37628	0.621383
0	C	0.428021	0.376255	0.910004
0	H	0.913668	0.0540835	0.356431
0	H	0.183493	0.0460375	0.172924
0	H	0.181954	0.914392	0.673137
0	H	0.911237	0.919786	0.856345
0	H	0.40896	0.532176	0.355885
0	H	0.682333	0.530523	0.170374
0	H	0.685809	0.435391	0.673447
0	H	0.412318	0.435572	0.859015
0	C	0.932866	0.210762	0.390686
0	C	0.169446	0.203831	0.142351
0	C	0.163164	0.757553	0.639378
0	C	0.925586	0.762084	0.887289
0	C	0.424177	0.690514	0.38288
0	C	0.671249	0.689354	0.145272
0	C	0.670773	0.27699	0.646733
0	C	0.42348	0.276758	0.884199
0	H	0.914533	0.232023	0.320851
0	H	0.187574	0.223937	0.212398
0	H	0.181708	0.7365	0.709376
0	H	0.90757	0.741826	0.817346
0	H	0.403913	0.708182	0.311217
0	H	0.689815	0.706694	0.216139
0	H	0.691065	0.259462	0.718448
0	H	0.404849	0.259398	0.813304
0	C	0.956029	0.283931	0.459041
0	C	0.149467	0.278184	0.0761701
0	C	0.140077	0.684194	0.57121
0	C	0.945627	0.687856	0.95359
0	C	0.446625	0.766831	0.448353
0	C	0.652879	0.766073	0.0817237
0	C	0.648387	0.200543	0.581399
0	C	0.441917	0.200048	0.947779
0	H	0.955171	0.362333	0.442221
0	H	0.152704	0.356601	0.0948618
0	H	0.141216	0.60581	0.588307
0	H	0.942531	0.609412	0.935071
0	H	0.443254	0.844409	0.427639
0	H	0.657849	0.843716	0.103336
0	H	0.651858	0.122997	0.602257
0	H	0.436958	0.122406	0.926173
0	C	0.979982	0.258256	0.549237
0	C	0.125704	0.253612	0.985867
0	C	0.115835	0.709661	0.480821
0	C	0.969279	0.712589	0.0438118
0	C	0.472991	0.745429	0.540501
0	C	0.628617	0.744925	0.990556
0	C	0.621933	0.221769	0.489172
0	C	0.466216	0.221202	0.0389648
0	C	0.951491	0.971301	0.516996
0	C	0.144391	0.964758	0.011271
0	C	0.143513	0.996791	0.512042
0	C	0.950029	0.00133749	0.0177287
0	C	0.453461	0.456381	0.521813
0	C	0.641487	0.454933	0.00671681
0	C	0.641124	0.510878	0.507273
0	C	0.453247	0.511186	0.0227338
0	H	0.962268	0.962031	0.585488
0	H	0.134705	0.955684	0.943549
0	H	0.132438	0.0058891	0.443331
0	H	0.959618	0.0105184	0.0853737
0	H	0.467523	0.448919	0.592614
0	H	0.629765	0.447055	0.937498
0	H	0.626993	0.518161	0.436405
0	H	0.464925	0.519062	0.0919215
0	C	0.883028	0.931435	0.440408
0	C	0.210987	0.919074	0.0883951
0	C	0.211935	0.0371645	0.588187
0	C	0.883333	0.0466196	0.940439
0	C	0.385928	0.410831	0.450645
0	C	0.708152	0.407819	0.0811271
0	C	0.708589	0.556725	0.578259
0	C	0.386593	0.558309	0.948296
0	H	0.847539	0.977137	0.435589
0	H	0.248951	0.962144	0.0974841
0	H	0.247448	0.991406	0.593127
0	H	0.845494	0.00354604	0.931682
0	H	0.350565	0.45338	0.448623
0	H	0.745733	0.451387	0.0894873
0	H	0.743972	0.514241	0.580247
0	H	0.348982	0.514684	0.939805
0	H	0.87852	0.854265	0.455077
0	H	0.213419	0.841925	0.0712984
0	H	0.216205	0.11417	0.572929
0	H	0.880765	0.123872	0.95715
0	H	0.385194	0.333291	0.468735
0	H	0.709671	0.331299	0.0618828
0	H	0.709158	0.634241	0.559936
0	H	0.385043	0.63478	0.967598
0	H	0.869974	0.931714	0.371259
0	H	0.222241	0.917431	0.156294
0	H	0.225126	0.0374411	0.657415
0	H	0.871988	0.0478153	0.872473
0	H	0.369637	0.410384	0.379501
0	H	0.720832	0.404327	0.14999
0	H	0.724945	0.557298	0.649451
0	H	0.373969	0.561943	0.87948
0	C	0.000189711	0.908519	0.520801
0	C	0.092478	0.90707	0.00342917
0	C	0.0948213	0.0593041	0.508442
0	C	0.00182264	0.0593353	0.0254902
0	C	0.502089	0.397463	0.522641
0	C	0.590288	0.398261	0.00136584
0	C	0.592405	0.569645	0.506354
0	C	0.504453	0.56791	0.0281384
0	H	0.99037	0.909934	0.453914
0	H	0.100874	0.90876	0.0692323
0	H	0.104545	0.0573831	0.575247
0	H	0.993022	0.0585681	0.959374
0	H	0.489628	0.398233	0.453893
0	H	0.600269	0.399645	0.0683552
0	H	0.604805	0.568807	0.575065
0	H	0.494344	0.566915	0.961057
0	H	0.998834	0.830037	0.536337
0	H	0.0913944	0.828265	0.986357
0	H	0.0962312	0.137924	0.493301
0	H	0.00321708	0.13788	0.0434639
0	H	0.504066	0.319012	0.541232
0	H	0.588056	0.319551	0.98317
0	H	0.59039	0.648114	0.48777
0	H	0.506855	0.646508	0.0467412
0	H	0.049753	0.934784	0.575151
0	H	0.0441517	0.937395	0.948554
0	H	0.0452631	0.0331747	0.453887
0	H	0.0501331	0.0285734	0.0796981
0	H	0.550981	0.427787	0.573409
0	H	0.542032	0.429895	0.94844
0	H	0.543541	0.539246	0.455524
0	H	0.552672	0.536025	0.080802
0	C	0.00215792	0.339896	0.621079
0	C	0.107068	0.335976	0.916212
0	C	0.0937113	0.627846	0.40915
0	C	0.987956	0.630315	0.11356
0	C	0.494288	0.830257	0.609329
0	C	0.612509	0.829727	0.924181
0	C	0.600662	0.136817	0.420458
0	C	0.482452	0.136384	0.1054
0	H	0.0363684	0.307372	0.693596
0	H	0.0719857	0.305506	0.842972
0	H	0.0597554	0.660291	0.33657
0	H	0.0231859	0.660803	0.186772
0	H	0.530006	0.801167	0.682996
0	H	0.576368	0.802708	0.849839
0	H	0.565047	0.165869	0.34675
0	H	0.518792	0.163342	0.179727
0	C	0.0380158	0.424702	0.616557
0	C	0.0741142	0.424791	0.922
0	C	0.0574994	0.54351	0.413442
0	C	0.0206684	0.541248	0.10759
0	C	0.527385	0.915425	0.599632
0	C	0.582836	0.920612	0.933942
0	C	0.567407	0.0518627	0.430074
0	C	0.511881	0.0454056	0.0952856
0	H	0.0824123	0.396849	0.633049
0	H	0.0286997	0.401624	0.904611
0	H	0.0129867	0.571742	0.396391
0	H	0.0660795	0.564139	0.124831
0	H	0.571554	0.888982	0.614676
0	H	0.537586	0.900482	0.918421
0	H	0.523176	0.0784589	0.414771
0	H	0.557159	0.0653516	0.11083
0	H	0.0519462	0.483236	0.667661
0	H	0.0625016	0.483309	0.872111
0	H	0.0437034	0.484715	0.362606
0	H	0.0322448	0.482751	0.157468
0	H	0.541252	0.975799	0.649235
0	H	0.571695	0.979698	0.884736
0	H	0.553602	0.991376	0.380593
0	H	0.522912	0.986144	0.144283
0	H	0.00855784	0.460159	0.547347
0	H	0.104675	0.458895	0.991853
0	H	0.0866657	0.508283	0.482735
0	H	0.989956	0.507199	0.0377126
0	H	0.495995	0.94821	0.529226
0	H	0.615484	0.952954	0.00451134
0	H	0.598676	0.0191886	0.500527
0	H	0.479131	0.0133465	0.0246093
0	C	0.943083	0.380076	0.605215
0	C	0.167656	0.370103	0.93343
0	C	0.152834	0.587118	0.425436
0	C	0.927425	0.596488	0.0966281
0	C	0.435274	0.868841	0.594449
0	C	0.674033	0.859904	0.942357
0	C	0.659715	0.0979855	0.435555
0	C	0.421091	0.106342	0.0877258
0	H	0.904353	0.401896	0.531933
0	H	0.206511	0.391513	0.00682649
0	H	0.191207	0.564511	0.498592
0	H	0.888261	0.575963	0.0230905
0	H	0.395915	0.890212	0.521237
0	H	0.71222	0.884072	0.0151501
0	H	0.698817	0.075941	0.508664
0	H	0.382335	0.0839357	0.0145655
0	H	0.955169	0.445078	0.649414
0	H	0.157723	0.434121	0.889378
0	H	0.140596	0.522515	0.380761
0	H	0.937199	0.531972	0.140101
0	H	0.447043	0.934009	0.638381
0	H	0.665132	0.921265	0.896546
0	H	0.647826	0.033187	0.391187
0	H	0.429842	0.0437953	0.132421
0	H	0.922675	0.322435	0.621848
0	H	0.186885	0.309548	0.917496
0	H	0.173767	0.644749	0.409653
0	H	0.908673	0.656905	0.11347
0	H	0.415937	0.810597	0.612125
0	H	0.693685	0.796727	0.930038
0	H	0.679438	0.156331	0.418589
0	H	0.402289	0.169039	0.102013
0	C	0.870289	0.0869608	0.658663
0	C	0.230254	0.0761542	0.872527
0	C	0.22464	0.879939	0.370319
0	C	0.864646	0.890672	0.15698
0	C	0.370184	0.591319	0.662291
0	C	0.727998	0.580173	0.867222
0	C	0.724681	0.375243	0.367289
0	C	0.366781	0.386761	0.162116
0	C	0.844134	0.989954	0.643489
0	C	0.255183	0.978011	0.888698
0	C	0.251219	0.976645	0.385721
0	C	0.839832	0.988903	0.140794
0	C	0.338924	0.497897	0.642038
0	C	0.755849	0.483789	0.88675
0	C	0.756246	0.468429	0.38783
0	C	0.339208	0.483308	0.142928
0	C	0.802902	0.972553	0.662494
0	C	0.295012	0.956084	0.867969
0	C	0.292382	0.993487	0.366512
0	C	0.79996	0.0110364	0.161409
0	C	0.298179	0.484869	0.662441
0	C	0.795673	0.463816	0.865707
0	C	0.797084	0.481114	0.367567
0	C	0.299416	0.503457	0.164007
0	H	0.783291	0.897921	0.652338
0	H	0.313484	0.88043	0.878626
0	H	0.312252	0.0679171	0.376721
0	H	0.781548	0.0867431	0.150707
0	H	0.274856	0.412902	0.648956
0	H	0.816197	0.389448	0.878404
0	H	0.820628	0.552903	0.381243
0	H	0.279093	0.577943	0.151548
0	C	0.786074	0.0497031	0.693216
0	C	0.311855	0.0301705	0.834769
0	C	0.308827	0.916002	0.335537
0	C	0.782963	0.937064	0.194481
0	C	0.286538	0.563162	0.699085
0	C	0.809966	0.538388	0.82945
0	C	0.808519	0.402675	0.330787
0	C	0.284886	0.428902	0.199958
0	H	0.753534	0.0351736	0.706919
0	H	0.34306	0.0121149	0.819272
0	H	0.341315	0.930083	0.321663
0	H	0.75168	0.955258	0.209806
0	H	0.254085	0.552393	0.713486
0	H	0.841437	0.522093	0.8141
0	H	0.841058	0.413158	0.31652
0	H	0.253433	0.445327	0.215317
0	C	0.810732	0.145529	0.705759
0	C	0.288919	0.127388	0.822065
0	C	0.283853	0.820438	0.322937
0	C	0.805811	0.839765	0.207238
0	C	0.316398	0.655378	0.716981
0	C	0.783944	0.633774	0.813081
0	C	0.778388	0.31069	0.312634
0	C	0.310629	0.333342	0.215981
0	H	0.796444	0.206157	0.727969
0	H	0.303269	0.18573	0.79807
0	H	0.297863	0.75954	0.300574
0	H	0.791343	0.781528	0.231146
0	H	0.306506	0.716898	0.744344
0	H	0.796209	0.692563	0.786575
0	H	0.788144	0.249064	0.285196
0	H	0.298188	0.274575	0.24226
0	C	0.853238	0.165697	0.689439
0	C	0.2479	0.151977	0.840271
0	C	0.241329	0.800867	0.339335
0	C	0.846855	0.814968	0.189134
0	C	0.358969	0.670793	0.699978
0	C	0.74218	0.656018	0.830428
0	C	0.73571	0.295644	0.329489
0	C	0.352323	0.310905	0.198546
0	C	0.858312	0.905219	0.605235
0	C	0.24116	0.897247	0.930254
0	C	0.237479	0.0615433	0.424406
0	C	0.853949	0.0695138	0.0992373
0	C	0.348398	0.412857	0.598305
0	C	0.744192	0.403207	0.931341
0	C	0.746868	0.55353	0.431611
0	C	0.350987	0.563877	0.0984705
0	H	0.886855	0.934469	0.585656
0	H	0.212974	0.929922	0.949275
0	H	0.209514	0.0322711	0.444962
0	H	0.882311	0.0367806	0.0805473
0	H	0.370507	0.443317	0.568767
0	H	0.720408	0.437401	0.95701
0	H	0.725215	0.523015	0.461816
0	H	0.375146	0.529791	0.0733608
0	C	0.898834	0.823719	0.679533
0	C	0.200137	0.813681	0.858805
0	C	0.196371	0.142671	0.349955
0	C	0.894783	0.153302	0.170514
0	C	0.394453	0.334268	0.672549
0	C	0.698926	0.322442	0.859391
0	C	0.700331	0.631607	0.357161
0	C	0.395875	0.644992	0.170279
0	H	0.945742	0.853285	0.740646
0	H	0.153809	0.843022	0.79621
0	H	0.149318	0.112824	0.289483
0	H	0.941009	0.124099	0.233418
0	H	0.442296	0.366181	0.727621
0	H	0.651107	0.353434	0.8028
0	H	0.652578	0.599238	0.302488
0	H	0.443703	0.614309	0.227247
0	H	0.907916	0.761502	0.651348
0	H	0.1898	0.755328	0.88854
0	H	0.187607	0.205017	0.378431
0	H	0.905327	0.211417	0.140856
0	H	0.400656	0.271599	0.641328
0	H	0.692437	0.261831	0.891996
0	H	0.694054	0.694289	0.388281
0	H	0.402435	0.705546	0.137713
0	H	0.875376	0.79295	0.705189
0	H	0.223799	0.778007	0.835344
0	H	0.219179	0.173313	0.323241
0	H	0.87084	0.189242	0.193409
0	H	0.377109	0.303627	0.707239
0	H	0.716897	0.289189	0.826408
0	H	0.717277	0.66233	0.321967
0	H	0.377542	0.678244	0.202747
0	C	0.795021	0.863424	0.515378
0	C	0.304682	0.857969	0.0213571
0	C	0.301006	0.103799	0.51357
0	C	0.790478	0.10855	0.00790644
0	C	0.283562	0.366648	0.515678
0	C	0.808452	0.35961	0.0178022
0	C	0.811642	0.600431	0.513611
0	C	0.286732	0.60693	0.011557
0	H	0.804091	0.810203	0.48057
0	H	0.295953	0.808142	0.0586115
0	H	0.292271	0.156572	0.549066
0	H	0.799274	0.158524	0.970813
0	H	0.289587	0.313751	0.477101
0	H	0.801342	0.311704	0.0579931
0	H	0.805705	0.65317	0.552373
0	H	0.293924	0.65513	0.971613
0	H	0.764997	0.923857	0.465452
0	H	0.334845	0.919942	0.0687472
0	H	0.331566	0.0434945	0.563251
0	H	0.760512	0.046479	0.960483
0	H	0.249726	0.424733	0.46626
0	H	0.841913	0.41943	0.0646083
0	H	0.845877	0.542722	0.563045
0	H	0.253649	0.546829	0.964679
0	H	0.766613	0.824778	0.52941
0	H	0.33281	0.816275	0.00835178
0	H	0.328665	0.143056	0.498492
0	H	0.762096	0.150024	0.0205625
0	H	0.260905	0.326196	0.538547
0	H	0.832093	0.314462	0.998898
0	H	0.833762	0.641239	0.490077
0	H	0.262584	0.651588	0.0298821
0	C	0.87985	0.270722	0.706396
0	C	0.224184	0.258798	0.824842
0	C	0.214362	0.696099	0.322261
0	C	0.870383	0.708039	0.204424
0	C	0.391752	0.771733	0.724007
0	C	0.713921	0.760418	0.808505
0	C	0.702686	0.19492	0.305285
0	C	0.380172	0.206262	0.21989
0	H	0.908549	0.276167	0.682343
0	H	0.192603	0.265858	0.843857
0	H	0.185615	0.691131	0.34626
0	H	0.902126	0.700905	0.185694
0	H	0.421623	0.773828	0.70192
0	H	0.680375	0.765318	0.82386
0	H	0.672758	0.193051	0.327253
0	H	0.413504	0.201088	0.204124
0	C	0.825253	0.347379	0.649215
0	C	0.281094	0.330153	0.889178
0	C	0.2687	0.619009	0.379436
0	C	0.813333	0.637068	0.139605
0	C	0.341663	0.855506	0.670312
0	C	0.767675	0.837196	0.8712
0	C	0.752563	0.110873	0.358934
0	C	0.326137	0.129944	0.157129
0	H	0.79277	0.329343	0.573819
0	H	0.3094	0.309613	0.963472
0	H	0.301321	0.637155	0.454829
0	H	0.785405	0.657636	0.0654048
0	H	0.308047	0.840613	0.594266
0	H	0.795545	0.819797	0.946053
0	H	0.786419	0.126008	0.434928
0	H	0.298345	0.14738	0.0823083
0	H	0.844026	0.422678	0.65767
0	H	0.264852	0.407228	0.881376
0	H	0.249663	0.543954	0.371095
0	H	0.829367	0.559837	0.14748
0	H	0.364744	0.927648	0.681875
0	H	0.74812	0.912631	0.858991
0	H	0.729361	0.0389865	0.34779
0	H	0.345375	0.0542925	0.1692
0	H	0.795141	0.34972	0.668877
0	H	0.31478	0.329223	0.875861
0	H	0.298709	0.616031	0.359617
0	H	0.779343	0.638396	0.152352
0	H	0.312228	0.862898	0.690874
0	H	0.802488	0.838658	0.859982
0	H	0.781729	0.10277	0.337992
0	H	0.291313	0.128979	0.168322
0	C	0.925032	0.293725	0.811803
0	C	0.183928	0.286813	0.721059
0	C	0.169161	0.673159	0.216841
0	C	0.910357	0.67957	0.308043
0	C	0.436561	0.787454	0.830526
0	C	0.675101	0.782801	0.70388
0	C	0.657895	0.179264	0.198776
0	C	0.419176	0.183462	0.324489
0	H	0.898423	0.306437	0.83633
0	H	0.214211	0.303844	0.703376
0	H	0.195747	0.660774	0.192229
0	H	0.879864	0.661058	0.325062
0	H	0.409703	0.796742	0.855059
0	H	0.706324	0.797734	0.687462
0	H	0.684724	0.170524	0.174159
0	H	0.388062	0.168354	0.341065
0	H	0.954451	0.360545	0.828965
0	H	0.153598	0.352699	0.703118
0	H	0.139879	0.606136	0.199697
0	H	0.941311	0.614492	0.326231
0	H	0.467167	0.853955	0.852253
0	H	0.643599	0.848217	0.681549
0	H	0.627511	0.112491	0.177031
0	H	0.450615	0.118045	0.346506
0	H	0.958565	0.231673	0.853033
0	H	0.151473	0.225663	0.675114
0	H	0.135503	0.735103	0.175679
0	H	0.942197	0.741032	0.354332
0	H	0.46901	0.723319	0.868159
0	H	0.643877	0.719543	0.660235
0	H	0.625233	0.24316	0.161175
0	H	0.450473	0.246588	0.368272
0	N	0.00829728	0.131995	0.664602
0	N	0.093557	0.128639	0.867746
0	N	0.086851	0.835642	0.364928
0	N	0.00131072	0.837765	0.161731
0	N	0.506232	0.624298	0.662248
0	N	0.592834	0.623847	0.867541
0	N	0.588557	0.342656	0.367209
0	N	0.501942	0.342314	0.161941
0	N	0.908929	0.105403	0.633191
0	N	0.192147	0.0978209	0.898372
0	N	0.185988	0.862128	0.395847
0	N	0.902748	0.868756	0.131174
0	N	0.408045	0.605355	0.634959
0	N	0.690576	0.600117	0.894488
0	N	0.686731	0.361581	0.394506
0	N	0.404158	0.36658	0.134813
0	S	0.0201663	0.0668684	0.810716
0	S	0.0799852	0.0652845	0.719785
0	S	0.074481	0.900176	0.218273
0	S	0.0148998	0.901499	0.309652
0	S	0.519688	0.561254	0.810517
0	S	0.578348	0.558707	0.718753
0	S	0.575045	0.405048	0.218765
0	S	0.516333	0.40795	0.310543
