#******************************************
#
# CIF file created by Zeo++
# Zeo++ is an open source package to
# analyze microporous materials
#
#*******************************************

_cell_length_a		20.5687(0)
_cell_length_b		23.1838(0)
_cell_length_c		10.9(0)
_cell_angle_alpha		90(0)
_cell_angle_beta		90(0)
_cell_angle_gamma		90(0)

_symmetry_space_group_name_H-M		'P1'
_symmetry_Int_Tables_number		1
_symmetry_cell_setting		Monoclinic

loop_
_symmetry_equiv_pos_as_xyz
'+x,+y,+z'

loop_
_atom_site_label
_atom_site_type_symbol
_atom_site_fract_x
_atom_site_fract_y
_atom_site_fract_z
0	S	0.58276	0.966272	0.119753
0	S	0.901936	0.0314483	0.619094
0	S	0.40009	0.46649	0.455054
0	S	0.0824673	0.528179	0.955348
0	S	0.535349	0.975772	0.285292
0	S	0.949656	0.0219491	0.784371
0	S	0.4477	0.475924	0.289685
0	S	0.0341683	0.519815	0.790409
0	O	0.676433	0.789136	0.846892
0	O	0.807093	0.209565	0.349617
0	O	0.308768	0.288945	0.728591
0	O	0.177637	0.70577	0.2268
0	O	0.759887	0.82249	0.732943
0	O	0.724876	0.176747	0.231966
0	O	0.226364	0.321677	0.845886
0	O	0.261625	0.673131	0.340211
0	O	0.661438	0.96796	0.940422
0	O	0.82187	0.0303515	0.439709
0	O	0.322876	0.46788	0.636508
0	O	0.164064	0.52669	0.134342
0	O	0.554817	0.8895	0.754441
0	O	0.928779	0.109885	0.253818
0	O	0.430131	0.3906	0.81965
0	O	0.0567652	0.605334	0.321519
0	O	0.28574	0.986892	0.436722
0	O	0.201032	0.0120964	0.929602
0	O	0.697951	0.488182	0.144762
0	O	0.783927	0.511696	0.642392
0	O	0.282592	0.0320176	0.619896
0	O	0.2071	0.966687	0.112078
0	O	0.703198	0.532404	0.960914
0	O	0.779091	0.466819	0.459158
0	O	0.489779	0.0139948	0.481003
0	O	0.997844	0.982901	0.983302
0	O	0.494471	0.514667	0.0926327
0	O	0.987348	0.482428	0.594186
0	O	0.397963	0.888097	0.536581
0	O	0.0872842	0.109025	0.0370182
0	O	0.586132	0.389373	0.0380357
0	O	0.897503	0.608738	0.540309
0	N	0.708603	0.888053	0.854701
0	N	0.775458	0.11045	0.353119
0	N	0.27662	0.387919	0.724145
0	N	0.210658	0.607067	0.219104
0	N	0.381954	0.0248451	0.528896
0	N	0.106464	0.972906	0.0254752
0	N	0.60273	0.525415	0.0478328
0	N	0.879121	0.472962	0.547918
0	C	0.71028	0.828903	0.814946
0	C	0.773794	0.16989	0.315311
0	C	0.275204	0.328548	0.762517
0	C	0.211887	0.666282	0.258618
0	C	0.791507	0.879699	0.703587
0	C	0.693694	0.119699	0.199926
0	C	0.195079	0.378728	0.877916
0	C	0.293881	0.616145	0.369314
0	C	0.760958	0.899538	0.584203
0	C	0.725066	0.100844	0.0805691
0	C	0.226382	0.397522	0.997343
0	C	0.263594	0.595978	0.488693
0	C	0.862559	0.864695	0.689876
0	C	0.622636	0.134459	0.185008
0	C	0.124059	0.363785	0.892669
0	C	0.364778	0.631668	0.383164
0	C	0.769854	0.91836	0.814277
0	C	0.714678	0.0802525	0.309866
0	C	0.216033	0.418211	0.768011
0	C	0.272592	0.577484	0.258361
0	C	0.820794	0.923589	0.918779
0	C	0.662916	0.0739375	0.412611
0	C	0.164126	0.424781	0.665642
0	C	0.323206	0.573379	0.153052
0	C	0.826364	0.868339	0.994735
0	C	0.656308	0.128414	0.490761
0	C	0.156807	0.370313	0.587686
0	C	0.327434	0.628905	0.0776848
0	C	0.805795	0.975493	0.000728562
0	C	0.677434	0.021379	0.492913
0	C	0.178976	0.47718	0.585119
0	C	0.308822	0.521451	0.0708196
0	C	0.657725	0.916483	0.918053
0	C	0.825903	0.0817896	0.417303
0	C	0.326766	0.416407	0.65896
0	C	0.159817	0.578115	0.156601
0	C	0.599046	0.880771	0.957241
0	C	0.884739	0.117226	0.456964
0	C	0.385171	0.380791	0.617832
0	C	0.100635	0.613407	0.118285
0	C	0.590095	0.888413	0.0960651
0	C	0.893753	0.109246	0.59577
0	C	0.393053	0.388594	0.478775
0	C	0.0909985	0.605857	0.9796
0	C	0.538795	0.900147	0.882164
0	C	0.944824	0.0980436	0.381074
0	C	0.445818	0.400412	0.691461
0	C	0.0406929	0.593922	0.194131
0	C	0.479653	0.863245	0.9077
0	C	0.00437438	0.134365	0.407564
0	C	0.504871	0.363342	0.666293
0	C	0.981164	0.63033	0.168158
0	C	0.480536	0.803838	0.883336
0	C	0.00402212	0.19392	0.384793
0	C	0.503931	0.303974	0.691026
0	C	0.98179	0.689878	0.190981
0	C	0.424238	0.77107	0.900186
0	C	0.0605332	0.226286	0.40276
0	C	0.560204	0.271132	0.674416
0	C	0.925276	0.722327	0.173999
0	C	0.367105	0.797247	0.942034
0	C	0.117415	0.19955	0.444191
0	C	0.61737	0.297203	0.632443
0	C	0.86813	0.695675	0.13362
0	C	0.366471	0.856311	0.967989
0	C	0.117619	0.140312	0.468275
0	C	0.618116	0.356254	0.606355
0	C	0.867729	0.636482	0.109129
0	C	0.422599	0.889346	0.950868
0	C	0.0612787	0.107698	0.449944
0	C	0.562034	0.389359	0.623349
0	C	0.924116	0.603786	0.126241
0	C	0.649799	0.80272	0.177043
0	C	0.834154	0.194031	0.681131
0	C	0.333625	0.303106	0.396172
0	C	0.150214	0.690984	0.895048
0	C	0.701893	0.776769	0.237651
0	C	0.781481	0.219497	0.740931
0	C	0.280884	0.277139	0.337605
0	C	0.202163	0.716594	0.833352
0	C	0.751481	0.810709	0.287748
0	C	0.73092	0.185235	0.786305
0	C	0.229959	0.310967	0.292166
0	C	0.251864	0.682396	0.784467
0	C	0.748467	0.870659	0.27674
0	C	0.733618	0.125427	0.771747
0	C	0.232361	0.370845	0.305468
0	C	0.249125	0.62253	0.797702
0	C	0.69627	0.896854	0.216077
0	C	0.786292	0.0997447	0.711549
0	C	0.285114	0.397047	0.36442
0	C	0.197139	0.596682	0.859662
0	C	0.646474	0.8631	0.165797
0	C	0.836978	0.133849	0.665586
0	C	0.336154	0.363377	0.410399
0	C	0.147235	0.630701	0.908745
0	C	0.5624	0.940861	0.681135
0	C	0.919327	0.0593376	0.178738
0	C	0.423851	0.442364	0.892098
0	C	0.0651907	0.55443	0.395898
0	C	0.314021	0.0111797	0.519116
0	C	0.173996	0.987291	0.0127552
0	C	0.670534	0.512043	0.0608316
0	C	0.81146	0.48721	0.559339
0	C	0.330497	0.0538354	0.714341
0	C	0.160614	0.944934	0.208981
0	C	0.656347	0.553132	0.863601
0	C	0.826103	0.444736	0.363422
0	C	0.340652	0.00424279	0.803039
0	C	0.150944	0.994947	0.29682
0	C	0.647517	0.502665	0.776686
0	C	0.83627	0.494349	0.274851
0	C	0.296576	0.104885	0.771453
0	C	0.195552	0.894342	0.265809
0	C	0.69057	0.603867	0.805873
0	C	0.791141	0.394172	0.306498
0	C	0.393153	0.0648799	0.635656
0	C	0.0972269	0.932964	0.133035
0	C	0.592732	0.564583	0.93928
0	C	0.88905	0.432884	0.440791
0	C	0.404125	0.128458	0.596343
0	C	0.0869025	0.869181	0.0947035
0	C	0.581083	0.628392	0.976138
0	C	0.899015	0.369176	0.480134
0	C	0.358958	0.147273	0.492305
0	C	0.13212	0.850369	0.990743
0	C	0.625043	0.648159	0.0812366
0	C	0.854001	0.351212	0.585153
0	C	0.475554	0.137822	0.562169
0	C	0.0155204	0.859001	0.0611712
0	C	0.509253	0.637715	0.0073929
0	C	0.970395	0.358638	0.513297
0	C	0.433671	0.998747	0.463805
0	C	0.0534219	0.998656	0.963173
0	C	0.550379	0.49942	0.111534
0	C	0.93156	0.49825	0.612511
0	C	0.417681	0.950378	0.373732
0	C	0.0677865	0.0473055	0.872813
0	C	0.56578	0.450936	0.201676
0	C	0.916618	0.546624	0.703242
0	C	0.449111	0.965088	0.250147
0	C	0.0358943	0.0325693	0.749636
0	C	0.533834	0.465115	0.324995
0	C	0.948269	0.531714	0.826454
0	C	0.442197	0.893742	0.433438
0	C	0.043038	0.103552	0.933779
0	C	0.541667	0.394476	0.14093
0	C	0.941625	0.603063	0.643538
0	C	0.43673	0.841675	0.35103
0	C	0.0484464	0.15587	0.852114
0	C	0.547486	0.342313	0.222886
0	C	0.936175	0.655182	0.725789
0	C	0.375543	0.819114	0.320932
0	C	0.109691	0.178565	0.822807
0	C	0.60889	0.32013	0.252695
0	C	0.875014	0.678149	0.754676
0	C	0.371112	0.770057	0.247129
0	C	0.114267	0.227736	0.749483
0	C	0.613778	0.271253	0.326875
0	C	0.870542	0.727021	0.828987
0	C	0.427684	0.743921	0.202444
0	C	0.0577282	0.253873	0.70459
0	C	0.557416	0.244958	0.372086
0	C	0.927077	0.752616	0.875256
0	C	0.488688	0.765935	0.233805
0	C	0.996685	0.231697	0.735037
0	C	0.496207	0.266584	0.340963
0	C	0.988058	0.73021	0.84505
0	C	0.493383	0.814677	0.308699
0	C	0.991835	0.182784	0.809416
0	C	0.491056	0.31514	0.265649
0	C	0.992822	0.681653	0.769637
0	C	0.418578	0.0184491	0.196207
0	C	0.0665017	0.979234	0.695665
0	C	0.564466	0.518231	0.379659
0	C	0.916892	0.478917	0.880952
0	C	0.358944	0.012616	0.134465
0	C	0.125781	0.985388	0.632809
0	C	0.623867	0.51193	0.442071
0	C	0.857106	0.485695	0.941818
0	C	0.327582	0.0611142	0.0868743
0	C	0.157484	0.937062	0.585277
0	C	0.655536	0.560188	0.490053
0	C	0.824868	0.437737	0.989778
0	C	0.355337	0.115852	0.0994566
0	C	0.130404	0.882127	0.599228
0	C	0.628229	0.615108	0.477089
0	C	0.851961	0.382655	0.978497
0	C	0.414604	0.121836	0.160651
0	C	0.0714657	0.875811	0.661418
0	C	0.569386	0.62157	0.414605
0	C	0.91119	0.375736	0.917591
0	C	0.44588	0.0734822	0.209755
0	C	0.0398461	0.924031	0.710394
0	C	0.537797	0.573439	0.365198
0	C	0.943398	0.42355	0.868208
0	C	0.418243	0.845531	0.625242
0	C	0.0668149	0.151292	0.126221
0	C	0.566028	0.347137	0.948565
0	C	0.919188	0.64953	0.449196
0	H	0.756904	0.962716	0.781642
0	H	0.728111	0.0362084	0.275965
0	H	0.229731	0.462202	0.802036
0	H	0.26061	0.532838	0.290557
0	H	0.78623	0.937453	0.545928
0	H	0.700266	0.0630304	0.040841
0	H	0.201534	0.435312	0.0372944
0	H	0.288747	0.557781	0.526125
0	H	0.709435	0.910814	0.594313
0	H	0.776621	0.0898395	0.0913168
0	H	0.277958	0.408515	0.98672
0	H	0.211958	0.585033	0.478961
0	H	0.762992	0.865215	0.514637
0	H	0.723124	0.135522	0.0117874
0	H	0.224406	0.362785	0.0660049
0	H	0.266099	0.629985	0.558896
0	H	0.869127	0.830458	0.620905
0	H	0.616309	0.169389	0.117563
0	H	0.117875	0.328727	0.959857
0	H	0.370929	0.666457	0.451027
0	H	0.89135	0.902033	0.659632
0	H	0.594411	0.0972401	0.152264
0	H	0.0956734	0.40085	0.925702
0	H	0.393701	0.594702	0.415069
0	H	0.884365	0.848156	0.774909
0	H	0.600064	0.149944	0.27023
0	H	0.101547	0.348382	0.807329
0	H	0.386753	0.647619	0.297807
0	H	0.869192	0.932096	0.874334
0	H	0.614926	0.0656097	0.366453
0	H	0.116322	0.433402	0.712218
0	H	0.371996	0.565519	0.196577
0	H	0.832689	0.830243	0.936391
0	H	0.648491	0.166825	0.434002
0	H	0.149608	0.331849	0.644613
0	H	0.334025	0.666889	0.136288
0	H	0.86782	0.870532	0.0577036
0	H	0.615301	0.124688	0.554493
0	H	0.115152	0.374075	0.525462
0	H	0.368223	0.627187	0.0131241
0	H	0.782844	0.860954	0.0509385
0	H	0.699876	0.136276	0.546498
0	H	0.199838	0.362526	0.530464
0	H	0.283321	0.63607	0.0230537
0	H	0.809971	0.016156	0.949872
0	H	0.675814	0.981234	0.439731
0	H	0.177134	0.517417	0.637969
0	H	0.313995	0.480764	0.121289
0	H	0.756403	0.973488	0.0388025
0	H	0.725686	0.0240989	0.535598
0	H	0.227403	0.474389	0.54309
0	H	0.259281	0.522847	0.033359
0	H	0.839924	0.977518	0.0778782
0	H	0.641327	0.017576	0.56644
0	H	0.143291	0.480761	0.510869
0	H	0.342698	0.520066	0.993217
0	H	0.606812	0.833307	0.937972
0	H	0.877084	0.164782	0.438463
0	H	0.377703	0.333279	0.637022
0	H	0.108174	0.660937	0.137414
0	H	0.543567	0.866978	0.124773
0	H	0.940021	0.131075	0.624628
0	H	0.439384	0.367198	0.448864
0	H	0.0445596	0.627748	0.951847
0	H	0.528609	0.946866	0.896792
0	H	0.954662	0.0511529	0.393907
0	H	0.456051	0.447029	0.675367
0	H	0.0309023	0.547078	0.180654
0	H	0.611749	0.775589	0.137162
0	H	0.873127	0.221348	0.645325
0	H	0.372863	0.276087	0.43205
0	H	0.111948	0.718171	0.933773
0	H	0.703993	0.729954	0.245769
0	H	0.779717	0.266192	0.752149
0	H	0.279351	0.230393	0.327404
0	H	0.204048	0.763334	0.823385
0	H	0.792089	0.790354	0.334962
0	H	0.689791	0.205221	0.832642
0	H	0.188773	0.290599	0.246788
0	H	0.292363	0.702506	0.736453
0	H	0.7871	0.89753	0.314645
0	H	0.694354	0.0983332	0.806538
0	H	0.192826	0.397623	0.270683
0	H	0.287799	0.595475	0.760508
0	H	0.695791	0.943807	0.208078
0	H	0.786526	0.0529163	0.700503
0	H	0.285094	0.443924	0.37449
0	H	0.196868	0.549804	0.869703
0	H	0.524964	0.783633	0.849179
0	H	0.959784	0.214634	0.351076
0	H	0.459489	0.283814	0.725245
0	H	0.0262346	0.710488	0.224019
0	H	0.424813	0.725044	0.880322
0	H	0.0603194	0.272432	0.384198
0	H	0.55957	0.225126	0.694471
0	H	0.925709	0.768458	0.192568
0	H	0.323235	0.771561	0.954706
0	H	0.161431	0.224908	0.458071
0	H	0.661204	0.271459	0.619764
0	H	0.824069	0.721071	0.120937
0	H	0.322112	0.876727	0.00130874
0	H	0.161833	0.119452	0.501091
0	H	0.662513	0.376592	0.572988
0	H	0.823327	0.615719	0.0770105
0	H	0.421609	0.935499	0.970351
0	H	0.0620141	0.0614228	0.467937
0	H	0.563137	0.43553	0.604044
0	H	0.923323	0.557564	0.107575
0	H	0.599545	0.969293	0.719976
0	H	0.881333	0.0315068	0.216609
0	H	0.386082	0.470635	0.854824
0	H	0.102703	0.526245	0.357536
0	H	0.515779	0.963266	0.67139
0	H	0.965143	0.0357601	0.16761
0	H	0.470576	0.464818	0.898718
0	H	0.0189498	0.531485	0.406431
0	H	0.577917	0.923631	0.591936
0	H	0.904093	0.0777781	0.0904868
0	H	0.409734	0.425587	0.982526
0	H	0.0806155	0.572284	0.484587
0	H	0.437249	0.0497891	0.686963
0	H	0.053526	0.947592	0.186037
0	H	0.549336	0.54906	0.88656
0	H	0.933125	0.447307	0.388634
0	H	0.360191	0.965493	0.758357
0	H	0.130104	0.03314	0.252085
0	H	0.627946	0.464186	0.822337
0	H	0.856681	0.53281	0.319257
0	H	0.3732	0.0164016	0.878535
0	H	0.119682	0.982941	0.374275
0	H	0.615581	0.513812	0.699636
0	H	0.868063	0.481975	0.198377
0	H	0.293897	0.991215	0.845253
0	H	0.197999	0.00885384	0.336331
0	H	0.694745	0.489639	0.736535
0	H	0.789383	0.507906	0.233944
0	H	0.328143	0.127893	0.836391
0	H	0.16414	0.870138	0.329009
0	H	0.659169	0.627045	0.740951
0	H	0.82213	0.370668	0.241358
0	H	0.279266	0.136226	0.703274
0	H	0.214242	0.863901	0.197069
0	H	0.708171	0.635126	0.873989
0	H	0.77336	0.36314	0.374893
0	H	0.253334	0.0904623	0.823553
0	H	0.237867	0.9093	0.319775
0	H	0.733565	0.589142	0.753483
0	H	0.74817	0.409286	0.254486
0	H	0.393585	0.15608	0.678723
0	H	0.0979491	0.841977	0.177451
0	H	0.59241	0.65545	0.893294
0	H	0.887511	0.341637	0.398063
0	H	0.308133	0.136285	0.511849
0	H	0.182852	0.861871	0.00982258
0	H	0.676135	0.637319	0.0638679
0	H	0.803328	0.36314	0.56672
0	H	0.371691	0.126572	0.404883
0	H	0.11899	0.870605	0.903053
0	H	0.611515	0.627993	0.168797
0	H	0.867749	0.371679	0.67231
0	H	0.361467	0.194098	0.478317
0	H	0.130115	0.803497	0.977593
0	H	0.622056	0.695092	0.0936016
0	H	0.855547	0.304356	0.599064
0	H	0.508175	0.127649	0.638606
0	H	0.982796	0.870589	0.136524
0	H	0.47746	0.626533	0.930346
0	H	0.00299128	0.36849	0.43662
0	H	0.490358	0.110098	0.485022
0	H	0.000613193	0.885304	0.981944
0	H	0.493829	0.610622	0.0851316
0	H	0.985973	0.385914	0.590633
0	H	0.484389	0.18272	0.535551
0	H	0.00681612	0.813628	0.0384806
0	H	0.499801	0.682824	0.0316752
0	H	0.978349	0.313512	0.539167
0	H	0.363493	0.94548	0.358793
0	H	0.121777	0.0528667	0.856126
0	H	0.619888	0.446076	0.21793
0	H	0.862546	0.552012	0.718947
0	H	0.44368	0.927588	0.186065
0	H	0.0412924	0.0700478	0.685375
0	H	0.539161	0.427439	0.388714
0	H	0.943621	0.569379	0.890402
0	H	0.492645	0.89864	0.470041
0	H	0.992638	0.0982761	0.970438
0	H	0.491246	0.399336	0.10422
0	H	0.992126	0.597826	0.6074
0	H	0.335723	0.970472	0.125482
0	H	0.148484	0.0277023	0.623295
0	H	0.646741	0.469625	0.450753
0	H	0.834448	0.528135	0.949663
0	H	0.280876	0.0558948	0.0400917
0	H	0.203945	0.942547	0.537634
0	H	0.702186	0.554693	0.537118
0	H	0.777963	0.443591	0.0356128
0	H	0.330625	0.153558	0.0624543
0	H	0.155431	0.844494	0.56261
0	H	0.653024	0.652686	0.51463
0	H	0.826801	0.345333	0.0162903
0	H	0.436554	0.164333	0.170773
0	H	0.0500453	0.83314	0.672395
0	H	0.54805	0.664296	0.403547
0	H	0.932389	0.33291	0.907744
0	H	0.491393	0.0796539	0.259534
0	H	0.994668	0.917648	0.761097
0	H	0.492692	0.579921	0.31424
0	H	0.988922	0.41665	0.818847
0	H	0.331733	0.839528	0.357189
0	H	0.153351	0.158065	0.859425
0	H	0.652437	0.340722	0.215759
0	H	0.831307	0.658161	0.717025
0	H	0.323448	0.751812	0.225822
0	H	0.161985	0.246005	0.728797
0	H	0.661619	0.25338	0.348157
0	H	0.822905	0.745491	0.849538
0	H	0.541133	0.831299	0.33454
0	H	0.944084	0.166008	0.834614
0	H	0.443185	0.331423	0.239745
0	H	0.0405407	0.664793	0.744405
0	H	0.53284	0.745081	0.200264
0	H	0.95256	0.252539	0.701229
0	H	0.452239	0.245633	0.375094
0	H	0.0322154	0.750588	0.87996
0	H	0.424273	0.706283	0.142574
0	H	0.0613345	0.291626	0.645247
0	H	0.561224	0.207476	0.432307
0	H	0.923625	0.790103	0.935392
0	H	0.466938	0.85585	0.660813
0	H	0.0179998	0.140933	0.161221
0	H	0.517353	0.357615	0.913055
0	H	0.967369	0.637261	0.413939
0	H	0.417165	0.802504	0.584283
0	H	0.068066	0.194481	0.0859636
0	H	0.567085	0.303964	0.988874
0	H	0.919906	0.693043	0.487775
0	H	0.381577	0.849795	0.697738
0	H	0.103241	0.146754	0.1991
0	H	0.602747	0.351681	0.876259
0	H	0.882151	0.645491	0.377293
