#******************************************
#
# CIF file created by Zeo++
# Zeo++ is an open source package to
# analyze microporous materials
#
#*******************************************

_cell_length_a		27.2675(0)
_cell_length_b		10.2821(0)
_cell_length_c		14.364(0)
_cell_angle_alpha		90(0)
_cell_angle_beta		107.163(0)
_cell_angle_gamma		90(0)

_symmetry_space_group_name_H-M		'P1'
_symmetry_Int_Tables_number		1
_symmetry_cell_setting		Monoclinic

loop_
_symmetry_equiv_pos_as_xyz
'+x,+y,+z'

loop_
_atom_site_label
_atom_site_type_symbol
_atom_site_fract_x
_atom_site_fract_y
_atom_site_fract_z
0	Br	0.0559597	0.451069	0.0162595
0	Br	0.928519	0.431105	0.0875503
0	Br	0.553535	0.948676	0.00749764
0	Br	0.42556	0.936394	0.0776564
0	S	0.932909	0.174625	0.888876
0	S	0.0470869	0.172546	0.200246
0	S	0.431532	0.669972	0.885705
0	S	0.547004	0.683192	0.199938
0	O	0.0326925	0.0474388	0.740237
0	O	0.950878	0.0411271	0.345996
0	O	0.533321	0.553993	0.739488
0	O	0.453272	0.540255	0.342318
0	O	0.221358	0.187648	0.870258
0	O	0.761	0.171316	0.226547
0	O	0.723113	0.685307	0.866091
0	O	0.260522	0.643302	0.214484
0	O	0.921225	0.125561	0.977775
0	O	0.0598443	0.134282	0.10988
0	O	0.419361	0.617383	0.973196
0	O	0.559504	0.652737	0.107979
0	N	0.199265	0.974482	0.864296
0	N	0.784493	0.959836	0.228513
0	N	0.699451	0.47397	0.864809
0	N	0.288141	0.434378	0.230878
0	N	0.0989423	0.119715	0.866569
0	N	0.883155	0.107308	0.220358
0	N	0.600084	0.620683	0.866961
0	N	0.383703	0.595854	0.216328
0	N	0.963251	0.0478804	0.847093
0	N	0.0190335	0.0361868	0.236917
0	N	0.46394	0.547348	0.844547
0	N	0.520971	0.540441	0.233061
0	C	0.15401	0.812019	0.937777
0	C	0.828187	0.798641	0.150764
0	C	0.655124	0.312066	0.94079
0	C	0.333364	0.279334	0.151723
0	H	0.189185	0.767326	0.984537
0	H	0.792536	0.753345	0.106181
0	H	0.690847	0.268766	0.98665
0	H	0.297656	0.232966	0.108094
0	H	0.124073	0.736955	0.922931
0	H	0.858299	0.724232	0.163568
0	H	0.625673	0.235815	0.927046
0	H	0.363639	0.2055	0.16383
0	H	0.14271	0.888695	0.981096
0	H	0.838082	0.875498	0.105751
0	H	0.643886	0.388225	0.984612
0	H	0.342352	0.356318	0.105836
0	C	0.160417	0.866596	0.842861
0	C	0.823787	0.853218	0.247189
0	C	0.660233	0.36709	0.844991
0	C	0.329781	0.333894	0.248637
0	H	0.122564	0.906716	0.797354
0	H	0.861972	0.894404	0.290024
0	H	0.622196	0.407989	0.801339
0	H	0.367335	0.380876	0.288336
0	C	0.186941	0.10596	0.848427
0	C	0.796154	0.091651	0.244475
0	C	0.687934	0.605605	0.847262
0	C	0.297104	0.568146	0.239102
0	C	0.130397	0.146118	0.799682
0	C	0.852667	0.135375	0.288738
0	C	0.631592	0.649164	0.800534
0	C	0.352528	0.619581	0.28412
0	H	0.114735	0.0829226	0.732747
0	H	0.8698	0.0757816	0.357046
0	H	0.615341	0.58955	0.731928
0	H	0.370673	0.562273	0.353098
0	C	0.0502568	0.0670877	0.828457
0	C	0.932292	0.0570168	0.257574
0	C	0.551064	0.570562	0.82802
0	C	0.434	0.553704	0.253788
0	C	0.0182222	0.0312995	0.8977
0	C	0.963828	0.0183999	0.18793
0	C	0.51886	0.532499	0.896546
0	C	0.465943	0.520135	0.183734
0	H	0.03008	0.0932147	0.966597
0	H	0.95141	0.0774912	0.117747
0	H	0.530064	0.59379	0.965692
0	H	0.45304	0.580525	0.114229
0	C	0.875282	0.176149	0.790321
0	C	0.10492	0.174184	0.29825
0	C	0.374601	0.668682	0.785528
0	C	0.604777	0.684322	0.298159
0	C	0.870483	0.280212	0.724621
0	C	0.110124	0.279011	0.363381
0	C	0.369834	0.772622	0.719735
0	C	0.609555	0.786911	0.365039
0	C	0.826502	0.288307	0.64422
0	C	0.154077	0.286386	0.443922
0	C	0.325897	0.780791	0.639252
0	C	0.653203	0.792685	0.446313
0	H	0.822538	0.368814	0.593209
0	H	0.158331	0.36755	0.494469
0	H	0.32206	0.861114	0.588132
0	H	0.657151	0.872347	0.498043
0	C	0.78795	0.193402	0.627857
0	C	0.192246	0.190414	0.460704
0	C	0.287215	0.686268	0.623077
0	C	0.69144	0.696966	0.462396
0	C	0.742499	0.20071	0.536365
0	C	0.237579	0.196731	0.552403
0	C	0.241311	0.694922	0.53248
0	C	0.736602	0.701918	0.554499
0	H	0.745464	0.292818	0.496395
0	H	0.235193	0.289735	0.591812
0	H	0.245136	0.785221	0.491202
0	H	0.734541	0.795051	0.594019
0	C	0.691584	0.204493	0.561014
0	C	0.288765	0.197065	0.528711
0	C	0.190924	0.705122	0.558674
0	C	0.787925	0.700914	0.531282
0	H	0.683873	0.11277	0.592958
0	H	0.298074	0.101033	0.505445
0	H	0.181146	0.613824	0.588326
0	H	0.796011	0.606041	0.504298
0	H	0.659319	0.222913	0.49569
0	H	0.320331	0.226002	0.592627
0	H	0.158898	0.729871	0.494426
0	H	0.81973	0.723938	0.596395
0	H	0.691497	0.282131	0.614
0	H	0.288316	0.26583	0.469475
0	H	0.192955	0.781183	0.61387
0	H	0.788515	0.773393	0.474959
0	C	0.744164	0.0860607	0.469175
0	C	0.234925	0.0832966	0.62004
0	C	0.240516	0.578037	0.465876
0	C	0.733338	0.588827	0.621992
0	H	0.782293	0.0749028	0.459096
0	H	0.196992	0.0761735	0.63155
0	H	0.277699	0.563988	0.45229
0	H	0.694855	0.580248	0.630787
0	H	0.716869	0.100057	0.396212
0	H	0.263065	0.0958153	0.692162
0	H	0.211859	0.591741	0.394529
0	H	0.760224	0.603021	0.695346
0	H	0.734745	0.993577	0.497676
0	H	0.242655	0.989482	0.591033
0	H	0.231344	0.486997	0.496695
0	H	0.742425	0.495132	0.594765
0	C	0.122982	0.137685	0.972292
0	C	0.857682	0.12172	0.114827
0	C	0.624001	0.636578	0.972865
0	C	0.358411	0.608317	0.110549
0	H	0.137889	0.0435703	0.00747853
0	H	0.841831	0.0269238	0.0821523
0	H	0.638711	0.54167	0.0068984
0	H	0.34675	0.511145	0.077448
0	H	0.0949026	0.175126	0.00842811
0	H	0.884985	0.155959	0.0758087
0	H	0.595924	0.673649	0.00923069
0	H	0.384625	0.652615	0.0728922
0	H	0.155048	0.207608	0.987086
0	H	0.826023	0.192715	0.100452
0	H	0.656156	0.706179	0.98864
0	H	0.323994	0.6704	0.0952824
0	C	0.253563	0.935764	0.919148
0	C	0.72979	0.919661	0.177718
0	C	0.75386	0.43386	0.918049
0	C	0.234258	0.385436	0.183182
0	H	0.253089	0.828222	0.933409
0	H	0.730488	0.812483	0.162401
0	H	0.75293	0.326883	0.93396
0	H	0.236722	0.27659	0.177962
0	C	0.271729	0.00574049	0.0173928
0	C	0.708977	0.990947	0.0804554
0	C	0.773495	0.506303	0.0150698
0	C	0.212751	0.440637	0.0802063
0	H	0.273524	0.112024	0.00800152
0	H	0.706578	0.0965222	0.0914759
0	H	0.776592	0.611556	0.00331937
0	H	0.211086	0.547628	0.081493
0	H	0.310491	0.973969	0.0584624
0	H	0.670056	0.957777	0.0417355
0	H	0.811876	0.472203	0.0564039
0	H	0.173385	0.406797	0.0461371
0	H	0.2462	0.987254	0.0621225
0	H	0.733221	0.975582	0.0327945
0	H	0.748019	0.493187	0.0606478
0	H	0.236065	0.412873	0.0330014
0	C	0.289629	0.960721	0.857129
0	C	0.695734	0.941599	0.244039
0	C	0.788993	0.45466	0.853631
0	C	0.19951	0.417531	0.246472
0	H	0.280495	0.897931	0.792616
0	H	0.70675	0.878413	0.308342
0	H	0.779164	0.389336	0.790504
0	H	0.213212	0.372161	0.318557
0	H	0.329642	0.941958	0.899138
0	H	0.655389	0.921199	0.205184
0	H	0.829217	0.436557	0.894651
0	H	0.160288	0.38268	0.21244
0	H	0.287168	0.0625549	0.832441
0	H	0.698059	0.0431626	0.269588
0	H	0.786272	0.555344	0.826286
0	H	0.197508	0.523309	0.256716
0	C	0.17632	0.760136	0.782862
0	C	0.809968	0.746182	0.309433
0	C	0.674679	0.260205	0.783435
0	C	0.319905	0.225964	0.31455
0	H	0.184744	0.801209	0.718302
0	H	0.802378	0.78707	0.374847
0	H	0.682362	0.301042	0.718126
0	H	0.310054	0.267169	0.37766
0	H	0.145493	0.688476	0.757338
0	H	0.841504	0.676237	0.333757
0	H	0.643346	0.189676	0.759045
0	H	0.354125	0.165248	0.342422
0	H	0.210719	0.707088	0.824404
0	H	0.775599	0.691478	0.269893
0	H	0.709105	0.206068	0.823419
0	H	0.28814	0.16188	0.276618
0	C	0.124512	0.291031	0.761487
0	C	0.857605	0.282236	0.322758
0	C	0.626629	0.796067	0.766584
0	C	0.354369	0.766856	0.31641
0	C	0.145122	0.390206	0.843244
0	C	0.833181	0.37625	0.239176
0	C	0.649475	0.890307	0.850794
0	C	0.329999	0.85768	0.230697
0	H	0.124207	0.38641	0.897591
0	H	0.850682	0.36814	0.17992
0	H	0.629543	0.885062	0.906661
0	H	0.35005	0.853694	0.175007
0	H	0.141799	0.489698	0.814972
0	H	0.837423	0.477396	0.263993
0	H	0.647011	0.99114	0.825425
0	H	0.330785	0.958958	0.254492
0	H	0.186043	0.372593	0.880778
0	H	0.791804	0.356871	0.208425
0	H	0.690341	0.868833	0.885952
0	H	0.289548	0.831464	0.195789
0	C	0.0673125	0.318368	0.711191
0	C	0.914836	0.315757	0.366273
0	C	0.56948	0.828103	0.720055
0	C	0.410762	0.806064	0.363406
0	H	0.0490672	0.239313	0.661436
0	H	0.935513	0.239857	0.416624
0	H	0.549906	0.752426	0.668287
0	H	0.431741	0.732402	0.415558
0	H	0.062165	0.408588	0.669152
0	H	0.919827	0.407674	0.406218
0	H	0.564712	0.920719	0.681036
0	H	0.413609	0.898605	0.402091
0	H	0.0459342	0.327941	0.764584
0	H	0.933885	0.32545	0.309226
0	H	0.549128	0.835688	0.775239
0	H	0.431153	0.817206	0.308552
0	C	0.154231	0.303954	0.685931
0	C	0.830645	0.296495	0.40257
0	C	0.654912	0.811469	0.688961
0	C	0.325187	0.779196	0.392868
0	H	0.195254	0.282721	0.719062
0	H	0.789514	0.273508	0.37363
0	H	0.696144	0.791035	0.720186
0	H	0.284411	0.754338	0.360879
0	H	0.151651	0.403165	0.657304
0	H	0.833403	0.396485	0.429701
0	H	0.651473	0.910965	0.660759
0	H	0.326665	0.879089	0.419864
0	H	0.139432	0.238257	0.623951
0	H	0.847316	0.232804	0.464987
0	H	0.639671	0.746113	0.626929
0	H	0.341085	0.715983	0.45591
0	C	0.0281395	0.888895	0.925385
0	C	0.954536	0.87466	0.163948
0	C	0.528972	0.389779	0.923145
0	C	0.457296	0.376821	0.157916
0	C	0.0478449	0.855168	0.0238518
0	C	0.93725	0.835157	0.0663233
0	C	0.547135	0.353572	0.0213512
0	C	0.436236	0.340052	0.0603217
0	H	0.0566736	0.931535	0.0805765
0	H	0.929979	0.908131	0.00760968
0	H	0.555206	0.428414	0.0789178
0	H	0.426427	0.414787	0.00249781
0	C	0.056129	0.72471	0.0510916
0	C	0.92974	0.70307	0.0432426
0	C	0.5545	0.222139	0.0466888
0	C	0.427619	0.20873	0.0357057
0	H	0.0711157	0.699003	0.128071
0	H	0.91684	0.672672	0.967097
0	H	0.567942	0.194206	0.123343
0	H	0.411406	0.180711	0.959498
0	C	0.0445281	0.629446	0.978753
0	C	0.939511	0.612057	0.118565
0	C	0.543753	0.128617	0.973037
0	C	0.440156	0.115746	0.109692
0	C	0.0249587	0.660872	0.880122
0	C	0.956821	0.649489	0.216302
0	C	0.525999	0.162949	0.874669
0	C	0.461935	0.150187	0.207267
0	H	0.0161819	0.585243	0.824484
0	H	0.964377	0.577404	0.274476
0	H	0.517852	0.0889748	0.817809
0	H	0.471947	0.0763424	0.264199
0	C	0.0168611	0.791599	0.853594
0	C	0.964266	0.781569	0.238744
0	C	0.51877	0.294357	0.849949
0	C	0.470331	0.281588	0.231192
0	H	0.00197312	0.818629	0.776847
0	H	0.977461	0.812994	0.31478
0	H	0.505241	0.323528	0.773446
0	H	0.486542	0.310842	0.307207
0	C	0.836225	0.0828969	0.777226
0	C	0.143823	0.0805321	0.311303
0	C	0.335839	0.5745	0.771689
0	C	0.643756	0.59104	0.31059
0	C	0.838668	0.969538	0.846549
0	C	0.141497	0.967952	0.241443
0	C	0.338725	0.458948	0.839316
0	C	0.642108	0.481441	0.238583
0	H	0.86983	0.985904	0.91728
0	H	0.108598	0.981371	0.172631
0	H	0.370285	0.473246	0.90994
0	H	0.609368	0.496014	0.169845
0	C	0.788228	0.955203	0.872344
0	C	0.190721	0.961034	0.210581
0	C	0.288611	0.442604	0.865933
0	C	0.691734	0.479192	0.208824
0	H	0.779816	0.0421527	0.908748
0	H	0.197658	0.052402	0.177428
0	H	0.280929	0.526902	0.905926
0	H	0.698135	0.572186	0.177179
0	H	0.78967	0.871245	0.920594
0	H	0.188227	0.882506	0.15749
0	H	0.289758	0.355618	0.91119
0	H	0.69036	0.402096	0.155201
0	H	0.755292	0.936663	0.808063
0	H	0.224733	0.939571	0.271973
0	H	0.255183	0.428406	0.801791
0	H	0.725617	0.458021	0.270636
0	C	0.851758	0.84437	0.80075
0	C	0.132269	0.840371	0.289052
0	C	0.351591	0.335862	0.790733
0	C	0.633409	0.351007	0.283139
0	H	0.824131	0.824242	0.729585
0	H	0.161802	0.82221	0.358332
0	H	0.323423	0.316985	0.719861
0	H	0.661999	0.332926	0.353563
0	H	0.851242	0.760569	0.847753
0	H	0.132851	0.757465	0.241193
0	H	0.35194	0.250461	0.836713
0	H	0.636242	0.270282	0.234958
0	H	0.890178	0.850255	0.79131
0	H	0.0947743	0.841167	0.302759
0	H	0.389589	0.34371	0.779605
0	H	0.595204	0.347342	0.293697
0	C	0.792894	0.0923222	0.694957
0	C	0.187147	0.0892631	0.393603
0	C	0.292358	0.584577	0.689728
0	C	0.686618	0.597668	0.393912
0	H	0.762828	0.0189315	0.683205
0	H	0.217086	0.0156143	0.405381
0	H	0.262318	0.511133	0.677961
0	H	0.716412	0.523682	0.405238
0	C	0.911864	0.383598	0.735159
0	C	0.0695717	0.384919	0.351255
0	C	0.411329	0.87565	0.730354
0	C	0.568622	0.891487	0.354294
0	H	0.942695	0.375181	0.806639
0	H	0.0373815	0.372495	0.282051
0	H	0.441323	0.869537	0.803039
0	H	0.538346	0.884785	0.281978
0	C	0.937277	0.364991	0.653988
0	C	0.0460982	0.377271	0.435877
0	C	0.438112	0.853497	0.651596
0	C	0.542114	0.872839	0.43385
0	H	0.954536	0.267889	0.657049
0	H	0.0291623	0.281131	0.439578
0	H	0.456991	0.757954	0.659408
0	H	0.52465	0.775893	0.42993
0	H	0.967769	0.436624	0.659701
0	H	0.015678	0.449688	0.427929
0	H	0.467646	0.927271	0.655582
0	H	0.511551	0.944554	0.42705
0	H	0.909813	0.375364	0.581221
0	H	0.0746584	0.394177	0.506619
0	H	0.41119	0.857388	0.577879
0	H	0.568995	0.882758	0.507266
0	C	0.88924	0.520633	0.732733
0	C	0.0929813	0.519132	0.344931
0	C	0.388553	0.0129873	0.724139
0	C	0.59219	0.027728	0.358763
0	H	0.860128	0.541427	0.663374
0	H	0.123103	0.544506	0.41188
0	H	0.361287	0.0329675	0.65255
0	H	0.621004	0.0467298	0.428863
0	H	0.919152	0.595153	0.743068
0	H	0.063668	0.595574	0.331912
0	H	0.418716	0.0871728	0.73723
0	H	0.562716	0.10338	0.34834
0	H	0.870998	0.533495	0.790727
0	H	0.110082	0.523084	0.284724
0	H	0.368135	0.0270171	0.778716
0	H	0.611038	0.0405745	0.301636
0	H	0.953588	0.0280138	0.773928
0	H	0.0288196	0.0156938	0.310203
0	H	0.455063	0.528591	0.771255
0	H	0.530556	0.519681	0.306409
