#******************************************
#
# CIF file created by Zeo++
# Zeo++ is an open source package to
# analyze microporous materials
#
#*******************************************

_cell_length_a		36.8863(0)
_cell_length_b		37.0772(0)
_cell_length_c		5.12244(0)
_cell_angle_alpha		90(0)
_cell_angle_beta		90(0)
_cell_angle_gamma		119.96(0)

_symmetry_space_group_name_H-M		'P1'
_symmetry_Int_Tables_number		1
_symmetry_cell_setting		Monoclinic

loop_
_symmetry_equiv_pos_as_xyz
'+x,+y,+z'

loop_
_atom_site_label
_atom_site_type_symbol
_atom_site_fract_x
_atom_site_fract_y
_atom_site_fract_z
0	S	0.753017	0.0483289	0.416806
0	S	0.949241	0.699892	0.408145
0	S	0.296236	0.245637	0.41515
0	S	0.246341	0.946433	0.642322
0	S	0.0503096	0.294803	0.646112
0	S	0.703131	0.749096	0.642998
0	S	0.420342	0.381031	0.745663
0	S	0.616521	0.0347252	0.745671
0	S	0.962553	0.576372	0.743084
0	S	0.912823	0.282747	0.975516
0	S	0.715072	0.625901	0.975231
0	S	0.371083	0.086165	0.973101
0	S	0.0868169	0.712136	0.0814836
0	S	0.284494	0.368983	0.0800342
0	S	0.628283	0.908541	0.0849406
0	S	0.579347	0.613846	0.310878
0	S	0.382963	0.960088	0.31056
0	S	0.0368151	0.418328	0.314483
0	O	0.792632	0.142008	0.908495
0	O	0.855625	0.645859	0.90432
0	O	0.350407	0.206141	0.909802
0	O	0.207081	0.85292	0.149426
0	O	0.144011	0.349036	0.150982
0	O	0.64905	0.788487	0.146802
0	O	0.459431	0.474108	0.242079
0	O	0.523567	0.98084	0.246247
0	O	0.0166883	0.537581	0.243072
0	O	0.87383	0.189355	0.481825
0	O	0.808545	0.679992	0.478401
0	O	0.316392	0.125502	0.481562
0	O	0.125828	0.805519	0.575301
0	O	0.191036	0.314988	0.577156
0	O	0.68304	0.869091	0.575086
0	O	0.540343	0.520799	0.814323
0	O	0.475994	0.0141353	0.810667
0	O	0.98274	0.457047	0.813466
0	N	0.877311	0.11272	0.148078
0	N	0.88519	0.759442	0.142751
0	N	0.236219	0.121758	0.145713
0	N	0.122522	0.882339	0.908399
0	N	0.114756	0.235524	0.913103
0	N	0.763193	0.872897	0.911386
0	N	0.544165	0.444872	0.480831
0	N	0.552476	0.094666	0.480996
0	N	0.902348	0.453645	0.481472
0	N	0.78893	0.218319	0.241672
0	N	0.779624	0.566496	0.242804
0	N	0.430496	0.209887	0.24231
0	N	0.21092	0.776769	0.814232
0	N	0.220264	0.428521	0.814078
0	N	0.568903	0.784741	0.814841
0	N	0.455704	0.550139	0.574639
0	N	0.447285	0.900362	0.576076
0	N	0.0970507	0.541018	0.57551
0	N	0.816586	0.0658672	0.710169
0	N	0.932027	0.745689	0.704729
0	N	0.250066	0.18231	0.708907
0	N	0.183225	0.929204	0.346394
0	N	0.067762	0.249162	0.350917
0	N	0.749377	0.812304	0.347997
0	N	0.483681	0.398228	0.0424092
0	N	0.599303	0.0809503	0.0439492
0	N	0.916238	0.513875	0.0436373
0	N	0.849504	0.265305	0.679179
0	N	0.732533	0.58009	0.679795
0	N	0.416937	0.149517	0.679441
0	N	0.150359	0.729783	0.376585
0	N	0.267208	0.414861	0.376387
0	N	0.582486	0.845083	0.377444
0	N	0.516205	0.596822	0.0129314
0	N	0.40035	0.91398	0.0128795
0	N	0.083184	0.480758	0.013158
0	N	0.840043	0.0482328	0.760139
0	N	0.949623	0.786652	0.754403
0	N	0.208886	0.158851	0.75788
0	N	0.15985	0.946909	0.29541
0	N	0.0501899	0.208207	0.30134
0	N	0.790553	0.835726	0.29865
0	N	0.50734	0.380789	0.0922817
0	N	0.616579	0.121897	0.0938912
0	N	0.875073	0.490455	0.0942916
0	N	0.825897	0.282774	0.627924
0	N	0.715092	0.539128	0.630338
0	N	0.458086	0.172914	0.62872
0	N	0.174063	0.712394	0.426889
0	N	0.284697	0.455831	0.425944
0	N	0.541335	0.821652	0.427834
0	N	0.492609	0.614312	0.962269
0	N	0.383115	0.873038	0.962868
0	N	0.124343	0.504154	0.962244
0	N	0.898189	0.128474	0.377455
0	N	0.869432	0.764632	0.371961
0	N	0.230938	0.10095	0.375261
0	N	0.101638	0.866497	0.679204
0	N	0.13041	0.230301	0.683574
0	N	0.768475	0.893668	0.681681
0	N	0.565004	0.460449	0.7105
0	N	0.536644	0.0999393	0.709715
0	N	0.896977	0.432796	0.71093
0	N	0.768089	0.202612	0.0122294
0	N	0.795157	0.561158	0.0132018
0	N	0.43569	0.230666	0.0128013
0	N	0.231737	0.792413	0.0438885
0	N	0.204629	0.433777	0.0435596
0	N	0.563749	0.763949	0.0442159
0	N	0.434847	0.534501	0.345166
0	N	0.463034	0.895051	0.34712
0	N	0.102433	0.561848	0.34596
0	C	0.761634	0.0940451	0.56698
0	C	0.903796	0.662774	0.56287
0	C	0.333424	0.237089	0.56782
0	C	0.237981	0.900879	0.491014
0	C	0.0958975	0.331983	0.493034
0	C	0.665974	0.757568	0.489231
0	C	0.428593	0.426372	0.899495
0	C	0.571532	0.997687	0.904411
0	C	0.999785	0.568481	0.900865
0	C	0.904528	0.237244	0.823867
0	C	0.760647	0.662989	0.821527
0	C	0.333763	0.0948078	0.823182
0	C	0.0951198	0.757646	0.233154
0	C	0.238968	0.331932	0.234297
0	C	0.66562	0.899823	0.233882
0	C	0.57112	0.568525	0.15702
0	C	0.428008	0.997186	0.152532
0	C	0.999604	0.426171	0.155982
0	C	0.790299	0.112559	0.785591
0	C	0.885235	0.672896	0.781173
0	C	0.323227	0.208543	0.786402
0	C	0.209384	0.882372	0.272152
0	C	0.114468	0.321953	0.274309
0	C	0.67621	0.786099	0.270545
0	C	0.457143	0.444716	0.118719
0	C	0.552965	0.00798281	0.122102
0	C	0.989496	0.539976	0.119815
0	C	0.87602	0.218746	0.604606
0	C	0.779099	0.652914	0.602329
0	C	0.343718	0.123272	0.604384
0	C	0.123669	0.776167	0.452238
0	C	0.220535	0.342047	0.453394
0	C	0.655698	0.871338	0.452545
0	C	0.542622	0.550204	0.937572
0	C	0.446615	0.986954	0.934687
0	C	0.00991676	0.454663	0.936921
0	C	0.818815	0.0959208	0.859662
0	C	0.901894	0.717893	0.85462
0	C	0.277986	0.180175	0.859493
0	C	0.18091	0.899046	0.1976
0	C	0.097845	0.276968	0.20071
0	C	0.721458	0.814452	0.197502
0	C	0.485696	0.428109	0.192616
0	C	0.569244	0.0530219	0.193827
0	C	0.944243	0.511698	0.193284
0	C	0.847443	0.235297	0.530031
0	C	0.762527	0.60792	0.529243
0	C	0.388905	0.151668	0.530082
0	C	0.152322	0.759687	0.526339
0	C	0.237164	0.387043	0.526654
0	C	0.610516	0.842929	0.526843
0	C	0.514117	0.566852	0.863252
0	C	0.430361	0.941927	0.862845
0	C	0.0551752	0.482925	0.86346
0	C	0.841591	0.0194781	0.580683
0	C	0.9782	0.816936	0.573711
0	C	0.178515	0.157064	0.576834
0	C	0.158059	0.975553	0.474703
0	C	0.02159	0.177909	0.481829
0	C	0.820964	0.8376	0.479685
0	C	0.509361	0.352461	0.911389
0	C	0.644978	0.152422	0.913639
0	C	0.844466	0.48842	0.914225
0	C	0.823564	0.310964	0.808628
0	C	0.686753	0.508834	0.811807
0	C	0.488601	0.174745	0.808821
0	C	0.17614	0.684064	0.246184
0	C	0.313028	0.486099	0.244239
0	C	0.510862	0.819945	0.247848
0	C	0.490348	0.6425	0.143206
0	C	0.354709	0.842465	0.142811
0	C	0.154981	0.506287	0.142428
0	C	0.844896	0.116739	0.0894163
0	C	0.880983	0.723106	0.0842632
0	C	0.272639	0.154203	0.0894727
0	C	0.154797	0.878141	0.968127
0	C	0.118675	0.271775	0.97061
0	C	0.726801	0.840397	0.967365
0	C	0.511663	0.448787	0.42301
0	C	0.548197	0.0582871	0.422726
0	C	0.93892	0.485716	0.423308
0	C	0.821447	0.214457	0.300049
0	C	0.783317	0.602694	0.299027
0	C	0.39407	0.177586	0.300113
0	C	0.178294	0.780478	0.756528
0	C	0.21633	0.392262	0.756683
0	C	0.605351	0.816984	0.756632
0	C	0.488126	0.546117	0.633071
0	C	0.451359	0.936681	0.633619
0	C	0.060504	0.508885	0.633303
0	C	0.864836	0.000748157	0.667902
0	C	0.9967	0.858823	0.659497
0	C	0.136377	0.133587	0.6618
0	C	0.13454	0.993975	0.387046
0	C	0.00309656	0.136036	0.395886
0	C	0.863096	0.861198	0.394775
0	C	0.533075	0.334141	0.996913
0	C	0.662978	0.194276	0.999539
0	C	0.802387	0.464754	0.000190445
0	C	0.799463	0.32885	0.722663
0	C	0.668531	0.466912	0.72712
0	C	0.530663	0.198125	0.722124
0	C	0.199917	0.66583	0.332154
0	C	0.33129	0.528033	0.328802
0	C	0.4688	0.796726	0.334704
0	C	0.466323	0.660489	0.0578165
0	C	0.336768	0.800632	0.0565932
0	C	0.197059	0.530088	0.0566539
0	C	0.820556	0.00791691	0.340664
0	C	0.989874	0.807554	0.333934
0	C	0.188077	0.178112	0.337207
0	C	0.179077	0.987308	0.714733
0	C	0.00989062	0.18727	0.721625
0	C	0.811448	0.816513	0.71917
0	C	0.488284	0.340868	0.671503
0	C	0.656918	0.143319	0.673809
0	C	0.853731	0.509407	0.674482
0	C	0.844647	0.322853	0.048415
0	C	0.675026	0.518232	0.0513841
0	C	0.479272	0.153827	0.0488643
0	C	0.155095	0.672375	0.00624931
0	C	0.324709	0.476664	0.004633
0	C	0.520241	0.840819	0.00762042
0	C	0.511466	0.654282	0.382933
0	C	0.342704	0.851502	0.382649
0	C	0.145748	0.485255	0.382016
0	C	0.821482	0.976821	0.191043
0	C	0.0207358	0.839584	0.18264
0	C	0.155932	0.176755	0.185057
0	C	0.17781	0.0182526	0.864176
0	C	0.979005	0.155225	0.87266
0	C	0.84364	0.817985	0.871422
0	C	0.489793	0.310289	0.519694
0	C	0.687457	0.175605	0.522344
0	C	0.821384	0.507771	0.523098
0	C	0.84268	0.353234	0.19985
0	C	0.644445	0.486152	0.203819
0	C	0.511539	0.155159	0.199706
0	C	0.156699	0.641798	0.854852
0	C	0.355289	0.508713	0.851962
0	C	0.488034	0.839645	0.856969
0	C	0.509611	0.684664	0.53485
0	C	0.312159	0.81916	0.533742
0	C	0.178141	0.487018	0.533556
0	C	0.739405	0.109549	0.440979
0	C	0.888335	0.624953	0.439655
0	C	0.371318	0.259122	0.442769
0	C	0.260307	0.885444	0.616609
0	C	0.111327	0.369713	0.617275
0	C	0.627995	0.735409	0.613131
0	C	0.406282	0.44193	0.775013
0	C	0.556332	0.959588	0.784987
0	C	0.0379144	0.59091	0.779003
0	C	0.926818	0.221789	0.949678
0	C	0.776261	0.700712	0.94609
0	C	0.295972	0.0726769	0.949086
0	C	0.0727844	0.773062	0.107481
0	C	0.223314	0.294184	0.110006
0	C	0.703334	0.921845	0.107017
0	C	0.593385	0.55294	0.28174
0	C	0.443154	0.0352463	0.272347
0	C	0.961419	0.403657	0.277063
0	C	0.715013	0.0842248	0.225935
0	C	0.913428	0.625864	0.222852
0	C	0.370423	0.283269	0.226404
0	C	0.284589	0.9107	0.832177
0	C	0.0860291	0.368714	0.833163
0	C	0.628789	0.711188	0.829373
0	C	0.38211	0.416943	0.558291
0	C	0.581307	0.960279	0.568057
0	C	0.0371392	0.614857	0.561081
0	C	0.95103	0.246982	0.16566
0	C	0.751142	0.699793	0.162823
0	C	0.29699	0.0482506	0.163451
0	C	0.0485522	0.74785	0.891643
0	C	0.24834	0.295063	0.892865
0	C	0.70224	0.946219	0.89258
0	C	0.617523	0.577901	0.498638
0	C	0.418061	0.0344939	0.488783
0	C	0.96212	0.379655	0.494883
0	C	0.719203	0.0500304	0.187741
0	C	0.947419	0.664311	0.180555
0	C	0.331911	0.279114	0.186292
0	C	0.280186	0.944752	0.871316
0	C	0.0519544	0.330277	0.873897
0	C	0.66732	0.715452	0.870693
0	C	0.386578	0.382974	0.517076
0	C	0.614926	0.998814	0.521448
0	C	0.998489	0.610098	0.516097
0	C	0.946619	0.281022	0.204837
0	C	0.717	0.661417	0.2039
0	C	0.335517	0.0523472	0.201416
0	C	0.0529599	0.713808	0.852426
0	C	0.282471	0.333435	0.851269
0	C	0.66374	0.942222	0.855694
0	C	0.613043	0.611862	0.539794
0	C	0.384418	0.995947	0.534695
0	C	0.000781878	0.384483	0.540658
0	C	0.865542	0.970025	0.514345
0	C	0.0272289	0.890254	0.504537
0	C	0.104842	0.132571	0.50621
0	C	0.133502	0.0245418	0.540381
0	C	0.972554	0.104583	0.550688
0	C	0.894677	0.862327	0.550469
0	C	0.534293	0.303859	0.841591
0	C	0.693221	0.225962	0.844561
0	C	0.770644	0.463432	0.845257
0	C	0.797785	0.358913	0.877584
0	C	0.638245	0.435436	0.882985
0	C	0.562334	0.199217	0.876581
0	C	0.201248	0.635578	0.177257
0	C	0.361576	0.559472	0.172737
0	C	0.437186	0.79579	0.180437
0	C	0.464767	0.690581	0.213239
0	C	0.306521	0.768891	0.211239
0	C	0.228847	0.531538	0.211779
0	C	0.84388	0.957809	0.27726
0	C	0.0394452	0.880908	0.267132
0	C	0.114357	0.154069	0.268803
0	C	0.155099	0.0369122	0.777714
0	C	0.960299	0.113905	0.788013
0	C	0.885212	0.840803	0.787763
0	C	0.51273	0.291756	0.604078
0	C	0.705637	0.216889	0.606981
0	C	0.779871	0.484846	0.607656
0	C	0.819295	0.371265	0.11526
0	C	0.626028	0.4448	0.120359
0	C	0.553027	0.17782	0.114326
0	C	0.179725	0.623389	0.939592
0	C	0.373744	0.55007	0.935282
0	C	0.446546	0.81716	0.942571
0	C	0.486322	0.702835	0.450721
0	C	0.294036	0.777894	0.448802
0	C	0.21966	0.510094	0.449259
0	H	0.834812	0.13583	0.202442
0	H	0.861688	0.694036	0.197333
0	H	0.301712	0.164377	0.204791
0	H	0.164738	0.858835	0.856193
0	H	0.137679	0.300791	0.856467
0	H	0.697746	0.830175	0.851755
0	H	0.501425	0.467654	0.537091
0	H	0.528835	0.0292372	0.535927
0	H	0.968094	0.495562	0.536935
0	H	0.831668	0.19552	0.186616
0	H	0.802064	0.631618	0.183672
0	H	0.36488	0.167484	0.186209
0	H	0.167937	0.799239	0.870687
0	H	0.197344	0.363263	0.871058
0	H	0.634563	0.827031	0.870184
0	H	0.498262	0.527108	0.519611
0	H	0.47052	0.965689	0.519621
0	H	0.0313448	0.498979	0.519396
0	H	0.882575	0.0105788	0.849137
0	H	0.986855	0.866673	0.840735
0	H	0.128425	0.115944	0.842961
0	H	0.116845	0.984001	0.20568
0	H	0.0129333	0.128204	0.21454
0	H	0.871001	0.878837	0.21362
0	H	0.550735	0.343904	0.178365
0	H	0.652998	0.201907	0.180991
0	H	0.794614	0.447196	0.181672
0	H	0.781853	0.318891	0.541153
0	H	0.678349	0.459097	0.545706
0	H	0.538437	0.215627	0.540464
0	H	0.217544	0.675662	0.513667
0	H	0.321481	0.535876	0.510123
0	H	0.460982	0.779219	0.51633
0	H	0.448678	0.650611	0.876346
0	H	0.34678	0.79306	0.875068
0	H	0.204791	0.547641	0.875159
0	H	0.803937	0.0234001	0.268792
0	H	0.97459	0.775505	0.263267
0	H	0.220346	0.195046	0.267644
0	H	0.195915	0.97208	0.786975
0	H	0.0251707	0.219312	0.792433
0	H	0.779177	0.799457	0.788555
0	H	0.47123	0.355991	0.601324
0	H	0.642075	0.11128	0.603548
0	H	0.885937	0.526478	0.604072
0	H	0.862041	0.308095	0.118939
0	H	0.690056	0.550338	0.120907
0	H	0.447074	0.137032	0.119951
0	H	0.137977	0.687416	0.935613
0	H	0.309642	0.444555	0.935181
0	H	0.552431	0.857455	0.936268
0	H	0.528782	0.639424	0.452943
0	H	0.357499	0.883525	0.453146
0	H	0.113534	0.468051	0.452153
0	H	0.803783	0.966865	0.00934058
0	H	0.0307423	0.831938	0.000838371
0	H	0.163681	0.194297	0.00298467
0	H	0.195492	0.0283705	0.0459446
0	H	0.968961	0.162847	0.054406
0	H	0.83593	0.800428	0.0533973
0	H	0.472199	0.300394	0.337471
0	H	0.697608	0.16822	0.340117
0	H	0.828906	0.525258	0.340943
0	H	0.860295	0.36339	0.381834
0	H	0.634449	0.493773	0.385815
0	H	0.503957	0.137614	0.381662
0	H	0.139079	0.631787	0.672846
0	H	0.36524	0.501054	0.669958
0	H	0.49566	0.857166	0.674916
0	H	0.527207	0.694701	0.717046
0	H	0.301945	0.826485	0.715941
0	H	0.170648	0.469501	0.715584
0	H	0.883011	0.955184	0.580775
0	H	0.0419346	0.922506	0.569849
0	H	0.0723906	0.114968	0.570949
0	H	0.115811	0.0391252	0.473634
0	H	0.957864	0.0723393	0.485255
0	H	0.927126	0.880038	0.485807
0	H	0.552125	0.289317	0.906661
0	H	0.707502	0.258186	0.909908
0	H	0.738248	0.445654	0.910565
0	H	0.779631	0.373103	0.812286
0	H	0.623743	0.403143	0.818558
0	H	0.594743	0.216818	0.810838
0	H	0.219129	0.621098	0.242623
0	H	0.376115	0.591776	0.237032
0	H	0.404779	0.778329	0.246366
0	H	0.44667	0.704839	0.148288
0	H	0.292284	0.736684	0.145618
0	H	0.261247	0.549434	0.146664
0	H	0.844065	0.933325	0.160881
0	H	0.063671	0.905573	0.14895
0	H	0.0896305	0.153545	0.150068
0	H	0.154599	0.0612315	0.894111
0	H	0.936051	0.089234	0.906009
0	H	0.909978	0.841415	0.906544
0	H	0.513417	0.267741	0.485734
0	H	0.729627	0.241757	0.488918
0	H	0.754964	0.484067	0.489506
0	H	0.818189	0.395088	0.233445
0	H	0.601998	0.420105	0.23926
0	H	0.577901	0.178463	0.232096
0	H	0.180524	0.599393	0.821514
0	H	0.397765	0.57474	0.81619
0	H	0.421724	0.816637	0.824942
0	H	0.485342	0.726678	0.569258
0	H	0.270039	0.752987	0.566573
0	H	0.244603	0.510978	0.567578
0	H	0.928606	0.135267	0.36442
0	H	0.862586	0.788109	0.358061
0	H	0.20754	0.070645	0.36145
0	H	0.0712686	0.859882	0.691716
0	H	0.137462	0.206971	0.697594
0	H	0.791814	0.923997	0.695522
0	H	0.595494	0.467459	0.696987
0	H	0.530441	0.123846	0.696575
0	H	0.873043	0.40271	0.69802
0	H	0.737634	0.195709	0.0250995
0	H	0.802353	0.53794	0.0274154
0	H	0.459219	0.260947	0.0259861
0	H	0.262248	0.799506	0.0306884
0	H	0.197585	0.457102	0.0298361
0	H	0.54017	0.733686	0.0312107
0	H	0.404404	0.527645	0.358305
0	H	0.469351	0.871221	0.360434
0	H	0.126318	0.591964	0.359061
0	H	0.895395	0.151834	0.469039
0	H	0.845959	0.738604	0.464148
0	H	0.257132	0.103861	0.468548
0	H	0.104299	0.843001	0.588501
0	H	0.153706	0.25635	0.59043
0	H	0.742276	0.890688	0.588098
0	H	0.562071	0.483641	0.803205
0	H	0.512798	0.0739447	0.799844
0	H	0.923065	0.435139	0.802239
0	H	0.771016	0.179373	0.920145
0	H	0.818259	0.587176	0.918749
0	H	0.409471	0.227836	0.920308
0	H	0.228662	0.815521	0.13666
0	H	0.181376	0.407733	0.136921
0	H	0.589983	0.766738	0.136329
0	H	0.43767	0.511205	0.253042
0	H	0.486773	0.921043	0.256311
0	H	0.0763479	0.55945	0.254332
0	H	0.740159	0.138187	0.495891
0	H	0.859851	0.597026	0.497892
0	H	0.399284	0.25835	0.499269
0	H	0.259684	0.856897	0.560977
0	H	0.139912	0.397645	0.560335
0	H	0.60003	0.736123	0.555825
0	H	0.406867	0.470404	0.832263
0	H	0.528131	0.931573	0.845688
0	H	0.065983	0.590578	0.838929
0	H	0.926206	0.193244	0.894029
0	H	0.804876	0.728592	0.888963
0	H	0.267981	0.0735394	0.894523
0	H	0.073367	0.801592	0.163182
0	H	0.19472	0.266311	0.167527
0	H	0.731326	0.920931	0.160881
0	H	0.592787	0.524456	0.224561
0	H	0.471378	0.0632815	0.212155
0	H	0.933353	0.403954	0.216563
0	H	0.695846	0.0924168	0.107424
0	H	0.905227	0.598463	0.106
0	H	0.397885	0.302217	0.10827
0	H	0.303815	0.902548	0.950404
0	H	0.0941588	0.396052	0.950469
0	H	0.601238	0.692101	0.946457
0	H	0.362914	0.425226	0.44068
0	H	0.573298	0.932653	0.454156
0	H	0.0648223	0.634133	0.445299
0	H	0.970192	0.238784	0.284279
0	H	0.759461	0.727145	0.280654
0	H	0.269589	0.0291287	0.281673
0	H	0.0293547	0.75602	0.773149
0	H	0.239972	0.267694	0.775162
0	H	0.729561	0.96522	0.773498
0	H	0.636677	0.569595	0.616421
0	H	0.426009	0.0620901	0.602865
0	H	0.934376	0.360284	0.60992
0	H	0.704635	0.0261969	0.0401232
0	H	0.971063	0.67358	0.0309111
0	H	0.322658	0.293555	0.0373861
0	H	0.294639	0.968508	0.0194821
0	H	0.0281411	0.320949	0.02253
0	H	0.676511	0.700982	0.0197452
0	H	0.372173	0.359391	0.367875
0	H	0.638401	0.00789368	0.371153
0	H	0.989288	0.624271	0.36531
0	H	0.96104	0.304752	0.353167
0	H	0.693285	0.652178	0.353033
0	H	0.344859	0.0377056	0.348328
0	H	0.0385196	0.690065	0.704244
0	H	0.306117	0.342647	0.701712
0	H	0.654342	0.956844	0.708967
0	H	0.627414	0.635428	0.689167
0	H	0.360874	0.986822	0.684567
0	H	0.00993474	0.370285	0.691601
0	H	0.864017	0.0611272	0.897512
0	H	0.936429	0.797546	0.890833
0	H	0.197898	0.135004	0.895378
0	H	0.135922	0.933982	0.157694
0	H	0.0633122	0.197315	0.164413
0	H	0.801517	0.859486	0.160582
0	H	0.531397	0.393957	0.229344
0	H	0.603096	0.132519	0.230353
0	H	0.864279	0.466504	0.231228
0	H	0.801929	0.269602	0.490379
0	H	0.728286	0.528344	0.493135
0	H	0.468934	0.196838	0.491702
0	H	0.198124	0.725601	0.563772
0	H	0.271455	0.466642	0.56262
0	H	0.530468	0.797653	0.564297
0	H	0.468621	0.601144	0.82471
0	H	0.396562	0.862451	0.825941
0	H	0.135124	0.528027	0.824768
