#******************************************
#
# CIF file created by Zeo++
# Zeo++ is an open source package to
# analyze microporous materials
#
#*******************************************

_cell_length_a		7.98638(0)
_cell_length_b		19.5999(0)
_cell_length_c		20.5404(0)
_cell_angle_alpha		88.9055(0)
_cell_angle_beta		81.4703(0)
_cell_angle_gamma		91.1546(0)

_symmetry_space_group_name_H-M		'P1'
_symmetry_Int_Tables_number		1
_symmetry_cell_setting		Triclinic

loop_
_symmetry_equiv_pos_as_xyz
'+x,+y,+z'

loop_
_atom_site_label
_atom_site_type_symbol
_atom_site_fract_x
_atom_site_fract_y
_atom_site_fract_z
0	O	0.97599	0.777747	0.416499
0	O	0.0680073	0.291367	0.586529
0	O	0.994732	0.909129	0.471143
0	O	0.0486908	0.159897	0.532066
0	O	0.624881	0.992397	0.325626
0	O	0.418559	0.0766562	0.67768
0	O	0.65189	0.86792	0.257679
0	O	0.391698	0.201173	0.745451
0	O	0.126098	0.018465	0.322266
0	O	0.917583	0.0506053	0.68088
0	O	0.219555	0.134361	0.238264
0	O	0.824966	0.934843	0.765391
0	O	0.741796	0.25355	0.339838
0	O	0.301341	0.815374	0.663163
0	O	0.640056	0.139804	0.425175
0	O	0.403454	0.929196	0.577946
0	O	0.840464	0.174247	0.153375
0	O	0.203849	0.894715	0.849648
0	O	0.632598	0.241118	0.0742623
0	O	0.411489	0.827667	0.928727
0	O	0.687067	0.447428	0.191712
0	O	0.356719	0.621507	0.811197
0	O	0.946646	0.38822	0.252313
0	O	0.0968882	0.680731	0.750714
0	O	0.256008	0.321521	0.0407171
0	O	0.787708	0.747256	0.962343
0	O	0.265227	0.34658	0.902315
0	O	0.77822	0.722383	0.100773
0	O	0.779469	0.475111	0.89511
0	O	0.263851	0.593961	0.108029
0	O	0.785605	0.446097	0.0295345
0	O	0.257802	0.62282	0.973567
0	O	0.668184	0.274946	0.852992
0	O	0.375507	0.794226	0.150279
0	O	0.000347612	0.235243	0.80432
0	O	0.0432862	0.833895	0.198843
0	O	0.0786983	0.435089	0.6643
0	O	0.96441	0.633878	0.338593
0	O	0.756065	0.482294	0.724097
0	O	0.287156	0.586673	0.278839
0	C	0.828878	0.756085	0.299313
0	C	0.214642	0.313031	0.703736
0	H	0.76907	0.715764	0.33498
0	H	0.274351	0.353349	0.668023
0	H	0.750219	0.759169	0.258494
0	H	0.293318	0.310004	0.744561
0	C	0.824483	0.82298	0.333766
0	C	0.219193	0.246122	0.669319
0	C	0.906879	0.833703	0.388828
0	C	0.136839	0.235381	0.614254
0	C	0.905156	0.897921	0.418809
0	C	0.138451	0.171128	0.584347
0	C	0.821063	0.953502	0.395149
0	C	0.222497	0.115534	0.608039
0	C	0.729749	0.941605	0.342744
0	C	0.313771	0.127447	0.66045
0	C	0.732698	0.877486	0.312477
0	C	0.310893	0.191598	0.690686
0	C	0.159135	0.781754	0.412679
0	C	0.884979	0.287357	0.589924
0	H	0.217673	0.780543	0.361043
0	H	0.825752	0.289009	0.641457
0	H	0.184513	0.735168	0.439524
0	H	0.860079	0.333667	0.562606
0	H	0.196852	0.827791	0.43684
0	H	0.847384	0.241108	0.566085
0	C	0.916306	0.874183	0.531699
0	C	0.127486	0.194484	0.471368
0	H	0.911349	0.818987	0.524182
0	H	0.133792	0.249672	0.478742
0	H	0.790285	0.894358	0.547107
0	H	0.25289	0.173782	0.455899
0	H	0.0030848	0.887543	0.566342
0	H	0.0401963	0.181448	0.436869
0	C	0.671464	0.0208944	0.259212
0	C	0.371318	0.0480889	0.744034
0	H	0.667222	0.980849	0.223056
0	H	0.376862	0.0879935	0.780247
0	H	0.796974	0.0455273	0.254574
0	H	0.245124	0.0240558	0.748719
0	H	0.573653	0.0589556	0.257071
0	H	0.468004	0.00950478	0.746057
0	C	0.468554	0.86682	0.273471
0	C	0.575013	0.202178	0.729634
0	H	0.429989	0.865777	0.22398
0	H	0.613653	0.203446	0.779087
0	H	0.424002	0.912767	0.300271
0	H	0.619364	0.156092	0.703029
0	H	0.425962	0.820179	0.301661
0	H	0.617709	0.248668	0.701223
0	C	0.828653	0.0219851	0.425947
0	C	0.214849	0.0470537	0.57724
0	H	0.700409	0.0329394	0.453458
0	H	0.343087	0.0360924	0.549659
0	H	0.915684	0.0208111	0.463818
0	H	0.127796	0.048237	0.539392
0	C	0.883547	0.0790792	0.377157
0	C	0.160022	0.989938	0.626017
0	C	0.0290614	0.0768962	0.329342
0	C	0.0145833	0.992158	0.673876
0	C	0.07329	0.131932	0.284172
0	C	0.970519	0.937179	0.719133
0	C	0.974709	0.191153	0.285398
0	C	0.0688439	0.877861	0.717753
0	C	0.831154	0.193594	0.334058
0	C	0.2122	0.875371	0.669008
0	C	0.78696	0.138485	0.379123
0	C	0.256424	0.93051	0.623973
0	C	0.246423	0.0126558	0.368822
0	C	0.797277	0.0563102	0.634308
0	H	0.313232	0.0611494	0.373254
0	H	0.730921	0.00772906	0.62979
0	H	0.335607	0.974789	0.345462
0	H	0.707738	0.0940427	0.657684
0	H	0.178894	0.993597	0.416243
0	H	0.86475	0.0754754	0.5869
0	C	0.254953	0.0732017	0.200267
0	C	0.788712	0.996428	0.802656
0	H	0.374299	0.0874262	0.168983
0	H	0.670927	0.981924	0.834783
0	H	0.152806	0.0634014	0.171451
0	H	0.89191	0.00756429	0.830531
0	H	0.271456	0.0295254	0.232813
0	H	0.769079	0.0393491	0.76971
0	C	0.566089	0.246	0.329163
0	C	0.477169	0.822821	0.673729
0	H	0.562823	0.232554	0.277885
0	H	0.480813	0.836731	0.72486
0	H	0.518644	0.297269	0.339383
0	H	0.523974	0.771384	0.663959
0	H	0.499116	0.207457	0.363321
0	H	0.544445	0.860993	0.6392
0	C	0.655136	0.185323	0.479291
0	C	0.388216	0.883955	0.523639
0	H	0.674036	0.237977	0.460356
0	H	0.369882	0.831195	0.542328
0	H	0.759198	0.169539	0.505182
0	H	0.283722	0.899735	0.497985
0	H	0.532304	0.177639	0.510563
0	H	0.510785	0.891909	0.49224
0	C	0.0317209	0.249543	0.238267
0	C	0.0118979	0.819399	0.764799
0	H	0.0882457	0.29023	0.266404
0	H	0.955566	0.778722	0.736577
0	H	0.136695	0.232473	0.20025
0	H	0.906792	0.836341	0.802821
0	C	0.897715	0.280349	0.203529
0	C	0.145942	0.788588	0.799517
0	C	0.811999	0.243806	0.159757
0	C	0.231851	0.825116	0.843245
0	C	0.692876	0.275393	0.125
0	C	0.350876	0.79349	0.878019
0	C	0.642542	0.342766	0.137727
0	C	0.401045	0.726077	0.865293
0	C	0.728665	0.379342	0.181604
0	C	0.31494	0.689565	0.821401
0	C	0.858418	0.349782	0.211594
0	C	0.185134	0.719145	0.791451
0	C	0.9407	0.157035	0.0910853
0	C	0.101126	0.911785	0.911455
0	H	0.87681	0.173761	0.0500575
0	H	0.163202	0.894968	0.952937
0	H	0.944261	0.101361	0.0951645
0	H	0.0975601	0.96746	0.907451
0	H	0.0675099	0.180314	0.0876843
0	H	0.974553	0.888487	0.914036
0	C	0.5036	0.189173	0.0967653
0	C	0.538637	0.8803	0.906158
0	H	0.475392	0.16853	0.0503876
0	H	0.567906	0.900617	0.952535
0	H	0.392204	0.213088	0.123832
0	H	0.649968	0.857099	0.878298
0	H	0.555144	0.150612	0.127162
0	H	0.484704	0.918894	0.876468
0	C	0.607739	0.460345	0.258638
0	C	0.435402	0.608645	0.744183
0	H	0.575554	0.514368	0.25536
0	H	0.467655	0.554631	0.747369
0	H	0.698272	0.450862	0.292798
0	H	0.344471	0.618129	0.710181
0	H	0.493388	0.428314	0.271127
0	H	0.549654	0.640711	0.731541
0	C	0.0555587	0.440853	0.215673
0	C	0.987892	0.628109	0.787307
0	H	0.984878	0.470854	0.183758
0	H	0.0584421	0.598132	0.81929
0	H	0.164295	0.416788	0.187232
0	H	0.879052	0.652194	0.815687
0	H	0.0941315	0.472393	0.254981
0	H	0.949472	0.596574	0.748007
0	C	0.497369	0.374894	0.110794
0	C	0.54614	0.693915	0.892268
0	H	0.380679	0.342912	0.127821
0	H	0.662875	0.725871	0.875223
0	H	0.473678	0.426034	0.133453
0	H	0.569715	0.642771	0.869622
0	C	0.515208	0.384962	0.0374574
0	C	0.52831	0.683916	0.965618
0	C	0.385896	0.359692	0.00370235
0	C	0.657671	0.709198	0.999338
0	C	0.395738	0.369321	0.935043
0	C	0.647753	0.699649	0.0680361
0	C	0.534124	0.404209	0.897666
0	C	0.509331	0.6648	0.105409
0	C	0.657934	0.433039	0.931665
0	C	0.385506	0.635964	0.0714435
0	C	0.650232	0.422044	0.000338852
0	C	0.393248	0.646878	0.0027419
0	C	0.08606	0.345284	0.036389
0	C	0.957496	0.723317	0.966676
0	H	0.0647128	0.350036	0.985
0	H	0.979072	0.71899	0.018053
0	H	0.0669052	0.393892	0.0613695
0	H	0.976008	0.674468	0.942102
0	H	0.00627189	0.304498	0.0626747
0	H	0.0375409	0.763783	0.939986
0	C	0.271071	0.273525	0.890335
0	C	0.7726	0.795466	0.112611
0	H	0.160984	0.265206	0.864824
0	H	0.882322	0.803734	0.138363
0	H	0.258721	0.2451	0.937064
0	H	0.786016	0.823745	0.0657711
0	H	0.388989	0.262068	0.858034
0	H	0.654346	0.807058	0.144644
0	C	0.954183	0.456135	0.896238
0	C	0.0892422	0.61312	0.106955
0	H	0.0224502	0.490114	0.85786
0	H	0.0205341	0.578334	0.144496
0	H	0.972645	0.402616	0.88338
0	H	0.0706562	0.666312	0.120989
0	H	0.988846	0.46619	0.944995
0	H	0.0552222	0.60436	0.0578826
0	C	0.758502	0.51404	0.0562168
0	C	0.284192	0.554677	0.947284
0	H	0.702982	0.547437	0.0223642
0	H	0.343117	0.521767	0.980569
0	H	0.887334	0.53118	0.0610452
0	H	0.154732	0.53693	0.944065
0	H	0.678126	0.50897	0.104366
0	H	0.361414	0.559628	0.898467
0	C	0.549268	0.408206	0.823925
0	C	0.494225	0.660866	0.179158
0	H	0.538152	0.462505	0.808064
0	H	0.505422	0.606576	0.195045
0	H	0.441187	0.379514	0.807441
0	H	0.602252	0.689606	0.195561
0	C	0.71361	0.380397	0.790969
0	C	0.329814	0.68865	0.212078
0	C	0.77475	0.316993	0.809229
0	C	0.268816	0.752076	0.193881
0	C	0.934863	0.294098	0.780172
0	C	0.108647	0.774977	0.222894
0	C	0.0397903	0.333973	0.732404
0	C	0.00361385	0.735064	0.270597
0	C	0.977661	0.397059	0.713695
0	C	0.0655902	0.67191	0.289247
0	C	0.815772	0.418987	0.741022
0	C	0.227468	0.649971	0.261939
0	C	0.728959	0.260215	0.915202
0	C	0.315201	0.808979	0.0879906
0	H	0.838107	0.22709	0.906615
0	H	0.205073	0.841613	0.0965334
0	H	0.618131	0.234995	0.944411
0	H	0.42558	0.834747	0.0590866
0	H	0.760561	0.30761	0.938454
0	H	0.285213	0.761561	0.0644354
0	C	0.929827	0.171501	0.784204
0	C	0.113951	0.897586	0.218993
0	H	0.95155	0.167757	0.730419
0	H	0.0924543	0.901238	0.272787
0	H	0.794826	0.167392	0.804341
0	H	0.248892	0.901703	0.198766
0	H	0.00507493	0.133737	0.806264
0	H	0.0386241	0.935393	0.197039
0	C	0.139962	0.499551	0.686753
0	C	0.903152	0.569461	0.316065
0	H	0.21452	0.521112	0.641808
0	H	0.828329	0.547889	0.360968
0	H	0.218421	0.490004	0.725142
0	H	0.824947	0.579042	0.277597
0	H	0.0328919	0.532203	0.704795
0	H	0.0101621	0.536749	0.298104
0	C	0.739505	0.489892	0.654712
0	C	0.303495	0.579008	0.348244
0	H	0.85742	0.476699	0.623318
0	H	0.185473	0.592134	0.379595
0	H	0.714087	0.544262	0.649957
0	H	0.32897	0.524618	0.352949
0	H	0.633089	0.457978	0.644523
0	H	0.409811	0.610929	0.35852
