#******************************************
#
# CIF file created by Zeo++
# Zeo++ is an open source package to
# analyze microporous materials
#
#*******************************************

_cell_length_a		12.5802(0)
_cell_length_b		11.7004(0)
_cell_length_c		22.7341(0)
_cell_angle_alpha		90(0)
_cell_angle_beta		131.341(0)
_cell_angle_gamma		90(0)

_symmetry_space_group_name_H-M		'P1'
_symmetry_Int_Tables_number		1
_symmetry_cell_setting		Monoclinic

loop_
_symmetry_equiv_pos_as_xyz
'+x,+y,+z'

loop_
_atom_site_label
_atom_site_type_symbol
_atom_site_fract_x
_atom_site_fract_y
_atom_site_fract_z
0	S	0.645984	0.362755	0.0622052
0	S	0.455925	0.8628	0.945539
0	F	0.672568	0.584656	0.0840651
0	F	0.430548	0.0847084	0.923779
0	F	0.802427	0.491236	0.191012
0	F	0.300691	0.99136	0.816803
0	F	0.862805	0.507599	0.123383
0	F	0.239714	0.00840926	0.884115
0	O	0.757989	0.250155	0.107857
0	O	0.34368	0.750335	0.899743
0	O	0.808729	0.0713991	0.0408036
0	O	0.292368	0.571466	0.966422
0	O	0.721571	0.884931	0.0724964
0	O	0.379626	0.384882	0.935187
0	O	0.693769	0.0326396	0.149084
0	O	0.406674	0.532752	0.858449
0	O	0.61378	0.368363	0.988999
0	O	0.487542	0.868585	0.0185825
0	O	0.549478	0.352686	0.0746595
0	O	0.552674	0.852287	0.933278
0	C	0.89455	0.258948	0.180448
0	C	0.207091	0.759973	0.827265
0	C	0.920138	0.235305	0.249517
0	C	0.181078	0.736788	0.758006
0	C	0.0616643	0.224613	0.319411
0	C	0.0393772	0.728257	0.687985
0	C	0.174449	0.235538	0.321096
0	C	0.926812	0.740593	0.686386
0	C	0.144592	0.263628	0.251298
0	C	0.957173	0.767392	0.756485
0	C	0.00551546	0.272222	0.18006
0	C	0.0964331	0.773936	0.827832
0	C	0.976044	0.282938	0.10433
0	C	0.126149	0.783579	0.903666
0	C	0.0250081	0.173752	0.0937323
0	C	0.0765057	0.674318	0.913733
0	C	0.15852	0.169429	0.115679
0	C	0.943131	0.670304	0.891964
0	C	0.215837	0.0662257	0.116925
0	C	0.885348	0.567198	0.890457
0	C	0.135792	0.96565	0.0941599
0	C	0.964903	0.466371	0.912877
0	C	0.00190238	0.966664	0.0712551
0	C	0.0988113	0.467071	0.935774
0	C	0.946148	0.072409	0.0697335
0	C	0.154902	0.572729	0.937441
0	C	0.924332	0.856754	0.0542756
0	C	0.176437	0.357001	0.953142
0	C	0.952743	0.817235	0.126626
0	C	0.148811	0.316267	0.881222
0	C	0.0834062	0.771775	0.19091
0	C	0.0191073	0.268875	0.817441
0	C	0.109957	0.738195	0.259014
0	C	0.993385	0.233764	0.749805
0	C	0.999264	0.742631	0.259434
0	C	0.103783	0.239507	0.749193
0	C	0.866307	0.787731	0.196042
0	C	0.235827	0.286548	0.812092
0	C	0.847798	0.829705	0.13193
0	C	0.253756	0.329069	0.875925
0	C	0.749863	0.795004	0.198622
0	C	0.351971	0.294914	0.809327
0	C	0.778675	0.891721	0.250882
0	C	0.322238	0.391661	0.756851
0	C	0.828823	0.873098	0.326092
0	C	0.272216	0.372903	0.681685
0	C	0.864559	0.964454	0.376583
0	C	0.236191	0.46421	0.631088
0	C	0.857018	0.0760059	0.351709
0	C	0.243489	0.575798	0.655853
0	C	0.80657	0.0982091	0.276468
0	C	0.293876	0.598235	0.731072
0	C	0.759361	0.00556627	0.224549
0	C	0.341094	0.505625	0.782994
0	C	0.801849	0.217207	0.249663
0	C	0.299128	0.717462	0.757803
0	C	0.328854	0.214166	0.395603
0	C	0.771976	0.72197	0.611605
0	C	0.340784	0.160884	0.461692
0	C	0.758998	0.670239	0.544835
0	C	0.408089	0.329215	0.423937
0	C	0.695084	0.837999	0.584686
0	C	0.397125	0.13087	0.376238
0	C	0.70183	0.63891	0.629893
0	C	0.364874	0.0587982	0.14514
0	C	0.736495	0.560286	0.862522
0	C	0.441911	0.17477	0.17441
0	C	0.659404	0.676227	0.832614
0	C	0.451498	0.972692	0.213535
0	C	0.649492	0.473405	0.794611
0	C	0.352772	0.0181479	0.0765391
0	C	0.749017	0.521043	0.931487
0	C	0.260432	0.701779	0.330725
0	C	0.843917	0.194339	0.678722
0	C	0.361717	0.802253	0.354569
0	C	0.740485	0.294026	0.652685
0	C	0.302341	0.596566	0.309125
0	C	0.803871	0.0904349	0.702306
0	C	0.27393	0.670893	0.401336
0	C	0.831541	0.160147	0.608914
0	C	0.904437	0.93836	0.455039
0	C	0.196023	0.437833	0.552588
0	C	0.767422	0.903051	0.437251
0	C	0.332377	0.401	0.570087
0	C	0.0127214	0.839614	0.497089
0	C	0.0863361	0.34008	0.510389
0	C	0.969967	0.0419869	0.510745
0	C	0.131827	0.541721	0.4971
0	C	0.751545	0.490457	0.117607
0	C	0.351125	0.990754	0.890114
0	H	0.0815756	0.203161	0.37268
0	H	0.0191243	0.707399	0.634544
0	H	0.231391	0.273633	0.251708
0	H	0.870669	0.778056	0.75625
0	H	0.862102	0.298074	0.0530114
0	H	0.240227	0.798084	0.955012
0	H	0.0319201	0.358224	0.106027
0	H	0.0709306	0.858878	0.902541
0	H	0.217898	0.248834	0.132802
0	H	0.884304	0.749943	0.87524
0	H	0.179879	0.884316	0.0955363
0	H	0.920486	0.385099	0.911306
0	H	0.807826	0.868304	0.00438652
0	H	0.292884	0.368737	0.00309702
0	H	0.955701	0.789413	0.0338694
0	H	0.14495	0.290114	0.973763
0	H	0.16678	0.7645	0.188419
0	H	0.935812	0.261056	0.819965
0	H	0.01494	0.713268	0.31015
0	H	0.0885693	0.209585	0.698701
0	H	0.645069	0.808177	0.138094
0	H	0.456781	0.308682	0.869808
0	H	0.738981	0.712812	0.21843
0	H	0.363669	0.212935	0.789691
0	H	0.839975	0.785499	0.345841
0	H	0.26137	0.285293	0.66202
0	H	0.889537	0.148011	0.390814
0	H	0.210843	0.647776	0.616702
0	H	0.807642	0.282516	0.287095
0	H	0.293714	0.7824	0.720307
0	H	0.696226	0.229431	0.189493
0	H	0.404899	0.729559	0.817945
0	H	0.454675	0.207517	0.223794
0	H	0.646862	0.708043	0.783126
0	H	0.548236	0.166088	0.194231
0	H	0.552992	0.667838	0.812734
0	H	0.387258	0.239298	0.127887
0	H	0.713839	0.741362	0.878743
0	H	0.448552	0.993958	0.259299
0	H	0.652168	0.493627	0.748627
0	H	0.412402	0.885282	0.194088
0	H	0.688454	0.386056	0.814476
0	H	0.563051	0.972298	0.240687
0	H	0.538044	0.47342	0.767634
0	H	0.304989	0.933305	0.0557132
0	H	0.796858	0.436273	0.952769
0	H	0.289168	0.0774695	0.027057
0	H	0.812735	0.580945	0.980615
0	H	0.45774	0.0127695	0.0940317
0	H	0.644158	0.516101	0.914156
0	H	0.46985	0.783431	0.408507
0	H	0.632596	0.272711	0.599476
0	H	0.366273	0.821632	0.309122
0	H	0.736186	0.316354	0.69788
0	H	0.326939	0.88046	0.364259
0	H	0.773259	0.371038	0.640812
0	H	0.408997	0.567105	0.359132
0	H	0.697605	0.0594228	0.652883
0	H	0.22866	0.525677	0.289837
0	H	0.878642	0.0199441	0.722804
0	H	0.30057	0.615084	0.261271
0	H	0.8054	0.111117	0.749834
0	H	0.383485	0.649717	0.452813
0	H	0.722561	0.136875	0.557804
0	H	0.241674	0.742178	0.417783
0	H	0.862323	0.23055	0.591067
0	H	0.208707	0.596657	0.388783
0	H	0.898588	0.0864121	0.623135
0	H	0.788238	0.879225	0.490701
0	H	0.311388	0.379472	0.516326
0	H	0.690145	0.972879	0.409035
0	H	0.411714	0.469311	0.599857
0	H	0.716361	0.829964	0.397237
0	H	0.380982	0.326181	0.608577
0	H	0.0445	0.821417	0.554068
0	H	0.0537312	0.321899	0.453208
0	H	0.96965	0.760425	0.462905
0	H	0.128529	0.260637	0.544311
0	H	0.108319	0.860858	0.507082
0	H	0.991327	0.362357	0.500759
0	H	0.00035072	0.0198063	0.56695
0	H	0.100878	0.51935	0.440774
0	H	0.0654876	0.0719889	0.523145
0	H	0.0368865	0.572852	0.48491
0	H	0.895581	0.113529	0.486552
0	H	0.207293	0.612481	0.521446
0	H	0.791534	0.133917	0.0644892
0	H	0.309542	0.633839	0.942635
0	H	0.656032	0.961498	0.113035
0	H	0.444617	0.461634	0.894528
0	H	0.741805	0.944408	0.0470646
0	H	0.359159	0.444348	0.960485
0	H	0.298684	0.21766	0.480484
0	H	0.801502	0.727765	0.526539
0	H	0.283503	0.0795365	0.443441
0	H	0.815321	0.58856	0.562111
0	H	0.451481	0.143253	0.513423
0	H	0.648045	0.653743	0.492989
0	H	0.51933	0.318362	0.47719
0	H	0.584165	0.829153	0.530588
0	H	0.406677	0.368675	0.379743
0	H	0.695194	0.875683	0.62883
0	H	0.3605	0.39033	0.437251
0	H	0.745391	0.899736	0.573458
0	H	0.507542	0.112968	0.427949
0	H	0.591656	0.621509	0.57766
0	H	0.340449	0.0488836	0.354482
0	H	0.757998	0.556865	0.651779
0	H	0.396461	0.164668	0.331036
0	H	0.701366	0.672721	0.674684
