#******************************************
#
# CIF file created by Zeo++
# Zeo++ is an open source package to
# analyze microporous materials
#
#*******************************************

_cell_length_a		14.0062(0)
_cell_length_b		20.1703(0)
_cell_length_c		14.5385(0)
_cell_angle_alpha		90(0)
_cell_angle_beta		126.918(0)
_cell_angle_gamma		90(0)

_symmetry_space_group_name_H-M		'P1'
_symmetry_Int_Tables_number		1
_symmetry_cell_setting		Monoclinic

loop_
_symmetry_equiv_pos_as_xyz
'+x,+y,+z'

loop_
_atom_site_label
_atom_site_type_symbol
_atom_site_fract_x
_atom_site_fract_y
_atom_site_fract_z
0	S	0.409048	0.21042	0.142225
0	S	0.669404	0.708664	0.37047
0	S	0.673576	0.793333	0.868982
0	S	0.413763	0.294756	0.641554
0	O	0.236618	0.107741	0.361292
0	O	0.841657	0.605914	0.151551
0	O	0.846964	0.89591	0.651125
0	O	0.241558	0.397181	0.861029
0	O	0.168112	0.0577255	0.157408
0	O	0.911401	0.556748	0.356591
0	O	0.915203	0.945847	0.854902
0	O	0.172011	0.446539	0.656102
0	O	0.0814819	0.259862	0.0299939
0	O	0.996227	0.759197	0.480512
0	O	0.00129945	0.743569	0.981969
0	O	0.0870248	0.244195	0.531756
0	O	0.154518	0.288091	0.258283
0	O	0.924581	0.786212	0.2524
0	O	0.928383	0.715528	0.753604
0	O	0.157963	0.216767	0.758876
0	O	0.774461	0.298147	0.00378249
0	O	0.305638	0.794858	0.505848
0	O	0.308591	0.705116	0.00852123
0	O	0.777354	0.20865	0.506264
0	O	0.888127	0.220968	0.216034
0	O	0.190011	0.717867	0.294017
0	O	0.195384	0.782368	0.796589
0	O	0.89348	0.285573	0.718496
0	O	0.434837	0.126059	0.468283
0	O	0.643379	0.624156	0.0437203
0	O	0.648799	0.877334	0.543851
0	O	0.44008	0.379723	0.968557
0	O	0.846003	0.400832	0.0745802
0	O	0.237486	0.898397	0.438152
0	O	0.236772	0.60246	0.937727
0	O	0.845588	0.105104	0.573699
0	O	0.824586	0.301516	0.27549
0	O	0.255026	0.797938	0.235152
0	O	0.258464	0.701763	0.736772
0	O	0.82818	0.205559	0.777165
0	O	0.129421	0.364428	0.35579
0	O	0.949512	0.86161	0.153573
0	O	0.953934	0.638999	0.656735
0	O	0.133699	0.141514	0.858387
0	N	0.267628	0.216952	0.111162
0	N	0.81095	0.715749	0.401815
0	N	0.815323	0.786663	0.900869
0	N	0.272337	0.287635	0.610491
0	O	0.231369	0.331847	0.0850735
0	O	0.84576	0.83088	0.424527
0	O	0.851192	0.67172	0.926713
0	O	0.237386	0.172544	0.587155
0	O	0.454728	0.148005	0.203905
0	O	0.624255	0.646335	0.308323
0	O	0.628104	0.855606	0.806771
0	O	0.459018	0.357054	0.703743
0	C	0.21475	0.154705	0.273935
0	C	0.863524	0.653045	0.238656
0	C	0.868674	0.84883	0.738352
0	C	0.219861	0.350108	0.773877
0	H	0.277676	0.197467	0.317803
0	H	0.800648	0.695842	0.194633
0	H	0.805766	0.806171	0.694451
0	H	0.282685	0.307371	0.817773
0	C	0.0653141	0.187353	0.0269608
0	C	0.0133183	0.686723	0.485069
0	C	0.0177368	0.816074	0.985231
0	C	0.0699998	0.316664	0.527369
0	H	0.00518894	0.176213	0.932276
0	H	0.0737869	0.676264	0.579961
0	H	0.0778404	0.827123	0.0800014
0	H	0.00950626	0.32715	0.43245
0	C	0.0839664	0.174634	0.215439
0	C	0.994322	0.67271	0.296591
0	C	0.999445	0.828888	0.796948
0	C	0.08905	0.330475	0.715867
0	H	0.0462709	0.137354	0.244664
0	H	0.0316821	0.63492	0.267714
0	H	0.0373318	0.866144	0.767904
0	H	0.0516861	0.368148	0.744914
0	C	0.951917	0.269687	0.19672
0	C	0.126842	0.766944	0.313476
0	C	0.131304	0.733708	0.815649
0	C	0.956269	0.236394	0.698756
0	H	0.949464	0.319417	0.22961
0	H	0.129283	0.816446	0.279996
0	H	0.133639	0.683988	0.782679
0	H	0.95359	0.186891	0.732061
0	C	0.192038	0.157376	0.0856604
0	C	0.886954	0.656415	0.427303
0	C	0.891101	0.846165	0.926495
0	C	0.196399	0.346956	0.585212
0	H	0.191683	0.123291	0.0238195
0	H	0.888142	0.622325	0.489623
0	H	0.891491	0.880263	0.988358
0	H	0.195252	0.381117	0.522978
0	C	0.00516777	0.167964	0.0829316
0	C	0.0731584	0.666569	0.429108
0	C	0.0780875	0.83545	0.929454
0	C	0.0101746	0.336776	0.583357
0	H	0.988386	0.112721	0.0656893
0	H	0.08949	0.611314	0.446935
0	H	0.094943	0.890667	0.94678
0	H	0.993998	0.392059	0.56573
0	C	0.826392	0.243184	0.256145
0	C	0.25201	0.739632	0.253924
0	C	0.256977	0.760082	0.756377
0	C	0.831432	0.263869	0.758569
0	C	0.895552	0.271599	0.0678071
0	C	0.18392	0.769308	0.442562
0	C	0.187502	0.731712	0.944532
0	C	0.899123	0.234141	0.569635
0	H	0.94906	0.304551	0.0524822
0	H	0.131395	0.802948	0.458071
0	H	0.133925	0.698791	0.959568
0	H	0.951564	0.20048	0.554042
0	O	0.335318	0.994975	0.252478
0	O	0.745307	0.493238	0.262815
0	O	0.747885	0.00852273	0.759423
0	O	0.337958	0.510145	0.749546
0	C	0.0790967	0.241128	0.264465
0	C	0.999462	0.738675	0.246477
0	C	0.00419428	0.762391	0.747801
0	C	0.0838201	0.264421	0.765681
0	H	0.118025	0.235508	0.357281
0	H	0.960098	0.732482	0.15365
0	H	0.965467	0.768069	0.65506
0	H	0.123587	0.270363	0.858617
0	C	0.882512	0.201342	0.0227623
0	C	0.196097	0.699339	0.488295
0	C	0.200699	0.80195	0.989664
0	C	0.887105	0.304114	0.524059
0	H	0.825757	0.172138	0.0379388
0	H	0.252028	0.669375	0.472832
0	H	0.257485	0.831136	0.974615
0	H	0.831301	0.334104	0.539574
0	H	0.832614	0.201367	0.927636
0	H	0.246653	0.69967	0.583454
0	H	0.250492	0.801929	0.0847779
0	H	0.836566	0.303849	0.428885
0	C	0.352588	0.0973237	0.457577
0	C	0.726106	0.596096	0.0543254
0	C	0.731023	0.906181	0.554656
0	C	0.357096	0.407327	0.958097
0	C	0.238497	0.118532	0.196391
0	C	0.840229	0.61723	0.316736
0	C	0.844719	0.885033	0.8157
0	C	0.24307	0.386051	0.695721
0	H	0.335934	0.10561	0.24516
0	H	0.743057	0.604052	0.26847
0	H	0.747569	0.897882	0.767162
0	H	0.340564	0.399302	0.744413
0	C	0.198251	0.275445	0.0772874
0	C	0.879382	0.774477	0.433527
0	C	0.884483	0.728097	0.934604
0	C	0.20383	0.228921	0.578522
0	C	0.760026	0.364409	0.0188059
0	C	0.322033	0.860867	0.491441
0	C	0.32284	0.638831	0.993442
0	C	0.760952	0.14258	0.52033
0	C	0.179583	0.34826	0.314108
0	C	0.899637	0.846063	0.195809
0	C	0.903244	0.655367	0.697778
0	C	0.182574	0.15679	0.815038
0	C	0.486064	0.276417	0.226945
0	C	0.592351	0.774804	0.28643
0	C	0.596851	0.727157	0.784698
0	C	0.490809	0.228551	0.72545
0	C	0.606655	0.373755	0.265108
0	C	0.474621	0.873157	0.250425
0	C	0.476947	0.629624	0.747246
0	C	0.60883	0.130346	0.761367
0	H	0.651342	0.406444	0.24111
0	H	0.431547	0.906395	0.275472
0	H	0.432718	0.596827	0.771631
0	H	0.652184	0.0972873	0.736399
0	C	0.543354	0.318942	0.19734
0	C	0.536659	0.817764	0.317202
0	C	0.540149	0.684535	0.814773
0	C	0.546942	0.185826	0.694883
0	H	0.537257	0.309759	0.119335
0	H	0.543096	0.808482	0.395337
0	H	0.54659	0.693715	0.892963
0	H	0.540751	0.195338	0.6169
0	C	0.228822	0.997935	0.204227
0	C	0.851579	0.496707	0.310173
0	C	0.854414	0.00558479	0.807796
0	C	0.23173	0.506631	0.702321
0	C	0.270418	0.384713	0.313043
0	C	0.810047	0.883306	0.197854
0	C	0.811612	0.619282	0.697925
0	C	0.270309	0.119	0.810931
0	H	0.261202	0.377385	0.232486
0	H	0.819487	0.875863	0.278538
0	H	0.819773	0.626861	0.777925
0	H	0.258666	0.125895	0.729052
0	H	0.360602	0.366506	0.384547
0	H	0.719361	0.865993	0.126436
0	H	0.72167	0.637468	0.625565
0	H	0.36181	0.136091	0.880914
0	H	0.266942	0.438209	0.324761
0	H	0.815099	0.936761	0.187154
0	H	0.814997	0.565615	0.686597
0	H	0.265071	0.0655505	0.822372
0	C	0.494969	0.289508	0.32673
0	C	0.582394	0.787717	0.185985
0	C	0.587385	0.714093	0.68454
0	C	0.500204	0.215308	0.825501
0	H	0.452062	0.25668	0.352148
0	H	0.623645	0.754363	0.159496
0	H	0.629859	0.747015	0.658788
0	H	0.45864	0.248465	0.851934
0	C	0.351948	0.049811	0.534668
0	C	0.727966	0.550362	0.975966
0	C	0.7317	0.953643	0.477559
0	C	0.354912	0.452866	0.0364958
0	H	0.295816	0.00553048	0.488072
0	H	0.785529	0.506412	0.0213619
0	H	0.787989	0.997816	0.524083
0	H	0.297268	0.496816	0.991124
0	H	0.313503	0.0731955	0.574841
0	H	0.76552	0.575516	0.936296
0	H	0.769887	0.930149	0.437171
0	H	0.317195	0.427554	0.0758642
0	H	0.442796	0.0326118	0.603969
0	H	0.637428	0.532738	0.905964
0	H	0.640843	0.970914	0.408314
0	H	0.445192	0.470448	0.106557
0	C	0.770151	0.186353	0.271692
0	C	0.307224	0.682337	0.238141
0	C	0.313485	0.816853	0.741044
0	C	0.776406	0.321181	0.774565
0	H	0.830944	0.143424	0.311058
0	H	0.245251	0.639952	0.197334
0	H	0.253168	0.860049	0.702639
0	H	0.83903	0.363256	0.816595
0	H	0.689032	0.169237	0.189178
0	H	0.387347	0.664305	0.320826
0	H	0.395302	0.833455	0.82351
0	H	0.6972	0.339716	0.69199
0	H	0.744927	0.199816	0.328364
0	H	0.334156	0.695663	0.182673
0	H	0.337795	0.803541	0.683494
0	H	0.748605	0.307689	0.829102
0	C	0.632492	0.379138	0.958448
0	C	0.449712	0.873911	0.54908
0	C	0.450325	0.623922	0.0537077
0	C	0.633261	0.129415	0.462318
0	H	0.581167	0.337177	0.956863
0	H	0.49824	0.831241	0.547514
0	H	0.501775	0.665846	0.0549549
0	H	0.58477	0.1718	0.464681
0	H	0.586385	0.392834	0.866663
0	H	0.498926	0.886813	0.6416
0	H	0.496563	0.610453	0.145541
0	H	0.584102	0.117233	0.369532
0	H	0.618087	0.420562	0.998622
0	H	0.464134	0.915526	0.508994
0	H	0.464427	0.582358	0.0134741
0	H	0.618684	0.0874617	0.5015
0	C	0.613525	0.387695	0.363651
0	C	0.467275	0.887024	0.151639
0	C	0.469562	0.615731	0.648402
0	C	0.615527	0.116108	0.859703
0	C	0.14409	0.945721	0.183036
0	C	0.937325	0.445348	0.330747
0	C	0.939007	0.0578018	0.828809
0	C	0.145856	0.557912	0.681677
0	H	0.0507701	0.956005	0.11022
0	H	0.0305738	0.456077	0.403518
0	H	0.0323908	0.0474176	0.901134
0	H	0.0527475	0.547156	0.608879
0	H	0.144534	0.939632	0.259561
0	H	0.936828	0.440161	0.254021
0	H	0.938098	0.0640675	0.751983
0	H	0.146226	0.563093	0.758357
0	H	0.169992	0.896442	0.170713
0	H	0.912539	0.395626	0.342711
0	H	0.913551	0.107029	0.841766
0	H	0.170612	0.607667	0.669725
0	C	0.557731	0.344652	0.394407
0	C	0.520797	0.843289	0.119258
0	C	0.524773	0.658874	0.61714
0	C	0.561599	0.159609	0.891948
0	H	0.563772	0.354234	0.471477
0	H	0.513754	0.852728	0.0416547
0	H	0.518312	0.649325	0.53984
0	H	0.5681	0.14987	0.9692
0	C	0.67936	0.447467	0.434144
0	C	0.403585	0.947489	0.0824864
0	C	0.403778	0.555905	0.57815
0	C	0.678864	0.0554517	0.928473
0	H	0.635605	0.471952	0.467131
0	H	0.449005	0.97195	0.0509851
0	H	0.446998	0.53165	0.544473
0	H	0.632968	0.0308757	0.959257
0	H	0.68826	0.485262	0.383969
0	H	0.395216	0.985117	0.132813
0	H	0.395775	0.518047	0.628523
0	H	0.687435	0.0180687	0.877943
0	H	0.770716	0.43482	0.508562
0	H	0.312136	0.935823	0.00695407
0	H	0.312039	0.568478	0.504097
0	H	0.770152	0.066931	0.00435325
0	O	0.391197	0.213657	0.0329651
0	O	0.687171	0.711042	0.479727
0	O	0.690663	0.790547	0.977914
0	O	0.395692	0.292438	0.532162
