#******************************************
#
# CIF file created by Zeo++
# Zeo++ is an open source package to
# analyze microporous materials
#
#*******************************************

_cell_length_a		17.358(0)
_cell_length_b		17.5879(0)
_cell_length_c		12.2702(0)
_cell_angle_alpha		90(0)
_cell_angle_beta		90(0)
_cell_angle_gamma		121.394(0)

_symmetry_space_group_name_H-M		'P1'
_symmetry_Int_Tables_number		1
_symmetry_cell_setting		Monoclinic

loop_
_symmetry_equiv_pos_as_xyz
'+x,+y,+z'

loop_
_atom_site_label
_atom_site_type_symbol
_atom_site_fract_x
_atom_site_fract_y
_atom_site_fract_z
0	C	0.571408	0.807671	0.471647
0	C	0.255209	0.777544	0.802331
0	C	0.285145	0.495865	0.137064
0	C	0.506549	0.240911	0.971524
0	C	0.821793	0.270902	0.302405
0	C	0.792523	0.553569	0.637638
0	H	0.590602	0.756198	0.472562
0	H	0.309613	0.849385	0.802695
0	H	0.211942	0.473036	0.136582
0	H	0.487118	0.292201	0.97235
0	H	0.767372	0.199064	0.303054
0	H	0.865754	0.576498	0.637057
0	C	0.655456	0.901893	0.454259
0	C	0.16148	0.766603	0.784925
0	C	0.298944	0.416436	0.119905
0	C	0.422608	0.146526	0.954535
0	C	0.915455	0.281825	0.284593
0	C	0.778622	0.632966	0.620855
0	C	0.717541	0.916507	0.554873
0	C	0.149213	0.814418	0.88555
0	C	0.251182	0.353928	0.220256
0	C	0.360673	0.132081	0.0552739
0	C	0.928023	0.23415	0.385141
0	C	0.82623	0.695323	0.721381
0	H	0.726266	0.857581	0.560352
0	H	0.210319	0.884024	0.889718
0	H	0.179666	0.339009	0.223279
0	H	0.351628	0.190816	0.0602558
0	H	0.866914	0.164601	0.389652
0	H	0.897857	0.710503	0.724386
0	C	0.673973	0.920029	0.662104
0	C	0.144882	0.768283	0.993469
0	C	0.29585	0.398006	0.328945
0	C	0.404446	0.129356	0.162679
0	C	0.932801	0.280613	0.492918
0	C	0.781637	0.650992	0.830094
0	H	0.657938	0.973825	0.6577
0	H	0.0877411	0.697465	0.990995
0	H	0.368056	0.41695	0.328254
0	H	0.420655	0.0756803	0.159053
0	H	0.989909	0.351451	0.489904
0	H	0.709423	0.632048	0.829496
0	C	0.584131	0.828756	0.676958
0	C	0.234896	0.769732	0.00786266
0	C	0.291612	0.483878	0.342558
0	C	0.49414	0.220845	0.176861
0	C	0.84285	0.279217	0.507876
0	C	0.785956	0.565141	0.843258
0	H	0.602211	0.776405	0.684033
0	H	0.290573	0.841155	0.0148137
0	H	0.218619	0.462577	0.348017
0	H	0.475815	0.273079	0.183115
0	H	0.787207	0.207851	0.515298
0	H	0.858967	0.586522	0.848754
0	C	0.521994	0.80478	0.576849
0	C	0.256087	0.730834	0.907715
0	C	0.330931	0.545721	0.242861
0	C	0.55617	0.244264	0.0767576
0	C	0.821235	0.317822	0.407766
0	C	0.746808	0.503544	0.743382
0	H	0.460924	0.736798	0.586381
0	H	0.323591	0.738085	0.916832
0	H	0.32165	0.603695	0.251563
0	H	0.61728	0.312312	0.085983
0	H	0.753777	0.310596	0.417145
0	H	0.756118	0.445578	0.751833
0	H	0.494704	0.849181	0.570283
0	H	0.208357	0.658035	0.901533
0	H	0.404994	0.576084	0.237822
0	H	0.583409	0.19979	0.0706919
0	H	0.868891	0.390614	0.401295
0	H	0.672719	0.4731	0.738328
0	C	0.738167	0.939402	0.758798
0	C	0.130436	0.81553	0.0898705
0	C	0.247458	0.333905	0.424801
0	C	0.34022	0.110523	0.259201
0	C	0.947813	0.233764	0.589294
0	C	0.830023	0.714746	0.926257
0	H	0.762356	0.892222	0.758145
0	H	0.183191	0.887809	0.0883595
0	H	0.173815	0.308614	0.420955
0	H	0.315886	0.157593	0.257568
0	H	0.895089	0.161477	0.588433
0	H	0.903639	0.739929	0.9224
0	H	0.799197	0.0064451	0.749554
0	H	0.0652347	0.811908	0.0808815
0	H	0.253591	0.274659	0.416881
0	H	0.279289	0.043356	0.250425
0	H	0.0129919	0.23739	0.579832
0	H	0.824	0.774078	0.91879
0	C	0.692396	0.933397	0.867808
0	C	0.133239	0.774971	0.199085
0	C	0.28548	0.379038	0.534912
0	C	0.386027	0.117495	0.368494
0	C	0.94572	0.274922	0.698335
0	C	0.791985	0.669301	0.0362415
0	H	0.679287	0.988777	0.874311
0	H	0.0741329	0.705899	0.205879
0	H	0.355735	0.393737	0.544317
0	H	0.399261	0.062254	0.375918
0	H	0.00483073	0.344062	0.704419
0	H	0.721742	0.654629	0.0457679
0	H	0.73856	0.943272	0.93609
0	H	0.126392	0.812467	0.267245
0	H	0.246655	0.332742	0.602483
0	H	0.339844	0.108136	0.43658
0	H	0.9532	0.237904	0.7665
0	H	0.830843	0.715395	0.104023
0	C	0.602623	0.84419	0.882073
0	C	0.220264	0.7728	0.213477
0	C	0.285293	0.466047	0.548092
0	C	0.475677	0.206928	0.381936
0	C	0.858734	0.277083	0.71348
0	C	0.792104	0.582226	0.0489036
0	H	0.569627	0.847871	0.958799
0	H	0.21342	0.734695	0.289863
0	H	0.321877	0.499631	0.62509
0	H	0.508827	0.204259	0.459025
0	H	0.866236	0.315697	0.789666
0	H	0.755454	0.548353	0.125741
0	C	0.536705	0.827131	0.78561
0	C	0.233702	0.72316	0.11657
0	C	0.336479	0.531565	0.451958
0	C	0.541666	0.223342	0.285763
0	C	0.844551	0.326148	0.616524
0	C	0.740966	0.517106	0.952434
0	C	0.620658	0.767651	0.896212
0	C	0.301669	0.868232	0.228953
0	C	0.187832	0.445552	0.560408
0	C	0.457417	0.283467	0.394138
0	C	0.777617	0.18171	0.730395
0	C	0.889538	0.602678	0.061158
0	H	0.662586	0.767701	0.828003
0	H	0.303943	0.911741	0.161982
0	H	0.145668	0.403945	0.491388
0	H	0.416526	0.283401	0.324678
0	H	0.775626	0.137498	0.664543
0	H	0.931856	0.6447	0.99246
0	H	0.660983	0.779328	0.971379
0	H	0.292188	0.896451	0.305169
0	H	0.157422	0.405051	0.634959
0	H	0.416059	0.272037	0.468196
0	H	0.787631	0.154723	0.807442
0	H	0.919792	0.642746	0.136064
0	C	0.534449	0.675809	0.9034
0	C	0.392621	0.874112	0.234309
0	C	0.181999	0.529235	0.567036
0	C	0.543809	0.375103	0.402067
0	C	0.686233	0.17495	0.735136
0	C	0.895348	0.518959	0.0669523
0	H	0.550619	0.622061	0.902983
0	H	0.449351	0.945273	0.23167
0	H	0.109777	0.51114	0.567334
0	H	0.528048	0.429137	0.401781
0	H	0.630067	0.103517	0.731884
0	H	0.967589	0.537097	0.0667982
0	C	0.464252	0.658374	0.816277
0	C	0.405626	0.819749	0.147228
0	C	0.235997	0.598032	0.478839
0	C	0.614164	0.392317	0.31523
0	C	0.672807	0.229214	0.648343
0	C	0.841205	0.45032	0.978698
0	H	0.486339	0.645451	0.737189
0	H	0.420672	0.855315	0.0680722
0	H	0.200492	0.57429	0.399588
0	H	0.592238	0.405112	0.235947
0	H	0.657512	0.193699	0.569144
0	H	0.876767	0.474141	0.899487
0	H	0.399104	0.596731	0.83534
0	H	0.465555	0.815083	0.166245
0	H	0.239238	0.661578	0.496108
0	H	0.679297	0.453961	0.334359
0	H	0.612811	0.233664	0.667844
0	H	0.837791	0.386677	0.995826
0	C	0.448899	0.73594	0.804228
0	C	0.32338	0.725942	0.134935
0	C	0.331881	0.616359	0.468747
0	C	0.629482	0.314679	0.303673
0	C	0.754854	0.323156	0.635743
0	C	0.745414	0.432183	0.968556
0	H	0.414187	0.740036	0.878605
0	H	0.316837	0.686157	0.209063
0	H	0.370816	0.651636	0.543576
0	H	0.664493	0.310944	0.377974
0	H	0.761645	0.362859	0.71004
0	H	0.7063	0.396562	0.0431495
0	H	0.400087	0.721911	0.737215
0	H	0.335087	0.690768	0.0675925
0	H	0.368097	0.664759	0.401818
0	H	0.678096	0.328509	0.236476
0	H	0.742741	0.358325	0.568746
0	H	0.709314	0.384117	0.901275
0	C	0.7201	0.910778	0.360037
0	C	0.154654	0.823031	0.691277
0	C	0.243449	0.351226	0.0252129
0	C	0.357495	0.137107	0.860593
0	C	0.921796	0.225174	0.190896
0	C	0.834057	0.698421	0.526295
0	H	0.723801	0.848732	0.362579
0	H	0.218439	0.890964	0.694976
0	H	0.175658	0.34543	0.0248073
0	H	0.353369	0.198886	0.863202
0	H	0.858032	0.157262	0.195036
0	H	0.90205	0.704581	0.525984
0	C	0.813336	0.989808	0.396421
0	C	0.0755725	0.834324	0.727727
0	C	0.228178	0.260004	0.0630169
0	C	0.264574	0.0577826	0.89742
0	C	0.00105188	0.21398	0.226833
0	C	0.848803	0.789367	0.564375
0	H	0.867695	0.979122	0.370664
0	H	0.0873065	0.899396	0.701686
0	H	0.159016	0.206173	0.043251
0	H	0.209828	0.0678897	0.871693
0	H	0.989349	0.148962	0.20061
0	H	0.917851	0.843521	0.544672
0	H	0.828467	0.0532981	0.358661
0	H	0.0106546	0.783589	0.690564
0	H	0.273353	0.242905	0.0210891
0	H	0.249749	0.994218	0.860066
0	H	0.065778	0.264787	0.189397
0	H	0.803292	0.806172	0.522666
0	C	0.809967	0.996381	0.521888
0	C	0.0695245	0.824699	0.853252
0	C	0.245165	0.266624	0.187434
0	C	0.268355	0.0517868	0.0228914
0	C	0.00751249	0.223665	0.352364
0	C	0.831848	0.782469	0.688799
0	H	0.865431	0.993732	0.561542
0	H	0.0740119	0.883073	0.89284
0	H	0.190757	0.20895	0.231143
0	H	0.21284	0.0543107	0.0626011
0	H	0.00299428	0.165226	0.391794
0	H	0.886088	0.840216	0.732579
0	H	0.81763	0.0606022	0.546734
0	H	0.00391768	0.766422	0.87887
0	H	0.308293	0.268571	0.206634
0	H	0.261137	0.987818	0.0481803
0	H	0.0732693	0.281872	0.377706
0	H	0.768587	0.780211	0.70816
0	C	0.690795	0.915593	0.242821
0	C	0.150211	0.790765	0.573411
0	C	0.281242	0.380407	0.908853
0	C	0.386484	0.132268	0.743257
0	C	0.925712	0.257294	0.0730404
0	C	0.796537	0.669305	0.409796
0	H	0.616711	0.863811	0.238306
0	H	0.202493	0.771329	0.568222
0	H	0.308901	0.454044	0.904512
0	H	0.460567	0.183963	0.738394
0	H	0.873831	0.277274	0.0684252
0	H	0.769263	0.595743	0.405334
0	C	0.704714	0.00645371	0.209859
0	C	0.0579881	0.710768	0.539108
0	C	0.356899	0.363011	0.878457
0	C	0.37236	0.041308	0.710349
0	C	0.0180795	0.336659	0.0380695
0	C	0.720568	0.686199	0.379225
0	H	0.699945	0.0418266	0.282332
0	H	0.0198752	0.670196	0.611267
0	H	0.396859	0.367642	0.951859
0	H	0.377778	0.00613759	0.782649
0	H	0.0568172	0.376976	0.11009
0	H	0.680266	0.681041	0.45248
0	H	0.774577	0.0515881	0.178827
0	H	0.0142221	0.733757	0.504538
0	H	0.327533	0.293611	0.848816
0	H	0.302248	0.99605	0.680088
0	H	0.0609547	0.312968	0.0027843
0	H	0.749579	0.755673	0.349962
0	C	0.635009	0.995644	0.12506
0	C	0.0693557	0.651566	0.457445
0	C	0.420138	0.429259	0.79241
0	C	0.441388	0.0520218	0.624596
0	C	0.0072368	0.396479	0.956921
0	C	0.657819	0.620043	0.292754
0	H	0.621556	0.942579	0.0646333
0	H	0.124101	0.692269	0.397222
0	H	0.381972	0.444165	0.731726
0	H	0.454213	0.104913	0.564272
0	H	0.952703	0.356387	0.896299
0	H	0.696345	0.605606	0.232078
0	H	0.568879	0.972532	0.165166
0	H	0.0913223	0.610376	0.500526
0	H	0.46844	0.494398	0.830824
0	H	0.507898	0.0753825	0.663762
0	H	0.9854	0.437626	0.000310835
0	H	0.609688	0.554687	0.330865
0	C	0.663536	0.0813982	0.0669726
0	C	0.982864	0.590305	0.398762
0	C	0.47263	0.395318	0.73485
0	C	0.41241	0.966148	0.566609
0	C	0.0940298	0.457736	0.898825
0	C	0.60502	0.653693	0.23533
0	C	0.740504	0.889433	0.161502
0	C	0.177373	0.868054	0.49334
0	C	0.203951	0.334175	0.825669
0	C	0.3365	0.158287	0.662158
0	C	0.897358	0.17961	0.993253
0	C	0.873856	0.715964	0.326714
0	H	0.722304	0.820273	0.173634
0	H	0.247668	0.921579	0.505307
0	H	0.159679	0.361292	0.829386
0	H	0.356142	0.227996	0.672713
0	H	0.827856	0.125301	0.00813195
0	H	0.918289	0.689028	0.330178
0	H	0.813816	0.931964	0.169812
0	H	0.134943	0.896728	0.502831
0	H	0.162581	0.262362	0.84002
0	H	0.263252	0.116918	0.672272
0	H	0.941079	0.152155	3.12546e-06
0	H	0.915023	0.787767	0.341313
0	H	0.723253	0.895062	0.0768453
0	H	0.171045	0.845771	0.408269
0	H	0.229458	0.343651	0.741537
0	H	0.351986	0.150756	0.577335
0	H	0.900547	0.201091	0.908337
0	H	0.848339	0.706622	0.242575
0	C	0.626642	0.970465	0.446549
0	C	0.0889362	0.6676	0.777256
0	C	0.399732	0.450152	0.11235
0	C	0.451589	0.0780986	0.946992
0	C	0.988018	0.380787	0.276346
0	C	0.677806	0.599194	0.613337
0	H	0.607324	0.983701	0.526266
0	H	0.0744035	0.634685	0.85699
0	H	0.433094	0.471002	0.191976
0	H	0.471348	0.0652733	0.0266579
0	H	0.00333034	0.413867	0.35601
0	H	0.644534	0.578561	0.693025
0	H	0.567959	0.94664	0.392542
0	H	0.110657	0.632458	0.723263
0	H	0.434304	0.508136	0.0579942
0	H	0.510033	0.101786	0.892599
0	H	0.965857	0.415867	0.222898
0	H	0.643203	0.54106	0.559227
0	H	0.680974	0.0345252	0.414407
0	H	0.0249964	0.657103	0.745244
0	H	0.411869	0.398853	0.0805288
0	H	0.397269	0.0138242	0.91538
0	H	0.0516123	0.391122	0.243277
0	H	0.665594	0.650365	0.581235
0	C	0.51075	0.898612	0.786248
0	C	0.157384	0.624354	0.117072
0	C	0.436851	0.56052	0.455972
0	C	0.567559	0.151833	0.287555
0	C	0.920767	0.42501	0.616303
0	C	0.640627	0.488258	0.956475
0	H	0.453578	0.880245	0.731299
0	H	0.173863	0.584621	0.0636096
0	H	0.476538	0.614216	0.397093
0	H	0.623893	0.169195	0.2316
0	H	0.903576	0.464641	0.563668
0	H	0.601039	0.435197	0.896848
0	H	0.567044	0.963717	0.760448
0	H	0.0929576	0.615314	0.0894733
0	H	0.446613	0.505214	0.437334
0	H	0.51083	0.0863475	0.263673
0	H	0.984901	0.434116	0.587295
0	H	0.631005	0.543819	0.938949
0	H	0.490978	0.9077	0.867718
0	H	0.145485	0.595408	0.198937
0	H	0.466155	0.585724	0.536553
0	H	0.58848	0.144131	0.368954
0	H	0.933633	0.454033	0.698207
0	H	0.611087	0.462242	0.0367359
0	O	0.499311	0.67388	0.012339
0	O	0.395656	0.842928	0.343665
0	O	0.217165	0.565962	0.67519
0	O	0.578455	0.376307	0.511048
0	O	0.682054	0.205246	0.844638
0	O	0.860872	0.482092	0.175194
0	O	0.506337	0.781662	0.384139
0	O	0.279225	0.737768	0.715618
0	O	0.324979	0.56138	0.0507237
0	O	0.571495	0.266969	0.883869
0	O	0.79756	0.310409	0.215531
0	O	0.752244	0.487789	0.551599
0	O	0.710119	0.156841	0.103018
0	O	0.906218	0.55777	0.434436
0	O	0.502064	0.351537	0.774103
0	O	0.365991	0.890742	0.602856
0	O	0.170375	0.490307	0.935396
0	O	0.575742	0.697563	0.274726
0	O	0.630673	0.067807	0.965375
0	O	0.99721	0.572522	0.29744
0	O	0.486323	0.418895	0.62987
0	O	0.444582	0.9796	0.464678
0	O	0.0804563	0.475765	0.797318
0	O	0.590752	0.629828	0.130456
0	H	0.651573	0.130218	0.921283
0	H	0.933455	0.528263	0.252731
0	H	0.528156	0.397125	0.587286
0	H	0.423907	0.917162	0.420738
0	H	0.144411	0.519979	0.752967
0	H	0.54889	0.651806	0.0882101
0	H	0.432975	0.6235	0.0202639
0	H	0.442744	0.82492	0.350085
0	H	0.234584	0.631106	0.681675
0	H	0.644714	0.426695	0.519747
0	H	0.635456	0.223928	0.850346
0	H	0.843121	0.416805	0.18131
0	H	0.528006	0.762458	0.320297
0	H	0.297888	0.777397	0.650273
0	H	0.284016	0.53971	0.986072
0	H	0.549895	0.286521	0.820313
0	H	0.778607	0.270454	0.150378
0	H	0.79242	0.509189	0.486288
