#******************************************
#
# CIF file created by Zeo++
# Zeo++ is an open source package to
# analyze microporous materials
#
#*******************************************

_cell_length_a		20.182(0)
_cell_length_b		21.7291(0)
_cell_length_c		10.4943(0)
_cell_angle_alpha		90(0)
_cell_angle_beta		90(0)
_cell_angle_gamma		90(0)

_symmetry_space_group_name_H-M		'P1'
_symmetry_Int_Tables_number		1
_symmetry_cell_setting		Monoclinic

loop_
_symmetry_equiv_pos_as_xyz
'+x,+y,+z'

loop_
_atom_site_label
_atom_site_type_symbol
_atom_site_fract_x
_atom_site_fract_y
_atom_site_fract_z
0	Si	0.848058	0.772644	0.858715
0	Si	0.65769	0.200224	0.358589
0	Si	0.156448	0.281394	0.670491
0	Si	0.348257	0.691195	0.170535
0	O	0.8589	0.827199	0.958926
0	O	0.647905	0.145382	0.45841
0	O	0.151034	0.336097	0.567918
0	O	0.353249	0.636139	0.0688763
0	O	0.85814	0.796448	0.71519
0	O	0.646637	0.17671	0.215401
0	O	0.142471	0.306473	0.810574
0	O	0.361419	0.66627	0.311269
0	O	0.899762	0.719966	0.888364
0	O	0.606219	0.252808	0.389313
0	O	0.104672	0.229862	0.635617
0	O	0.40078	0.742146	0.13583
0	O	0.774263	0.74855	0.867789
0	O	0.731571	0.224641	0.365965
0	O	0.229972	0.255206	0.66937
0	O	0.275038	0.718139	0.168015
0	C	0.870483	0.890407	0.98364
0	C	0.636212	0.0822396	0.483598
0	C	0.135481	0.399102	0.548566
0	C	0.368301	0.573013	0.0497836
0	H	0.861757	0.915583	0.892653
0	H	0.644391	0.0569971	0.39248
0	H	0.140343	0.422651	0.642392
0	H	0.363292	0.549603	0.143721
0	C	0.900735	0.798611	0.607343
0	C	0.604427	0.175044	0.107064
0	C	0.100496	0.311257	0.918605
0	C	0.403749	0.661289	0.418827
0	H	0.923908	0.752107	0.598411
0	H	0.581753	0.221775	0.098106
0	H	0.0765783	0.265174	0.930939
0	H	0.427996	0.707263	0.430775
0	C	0.922879	0.663938	0.940754
0	C	0.582372	0.308564	0.441665
0	C	0.0808731	0.172434	0.591921
0	C	0.425202	0.799439	0.092549
0	H	0.885013	0.628504	0.91591
0	H	0.620065	0.344315	0.417858
0	H	0.118193	0.137415	0.621939
0	H	0.388124	0.834704	0.122385
0	C	0.708529	0.746191	0.913883
0	C	0.797231	0.226376	0.412681
0	C	0.295926	0.254455	0.623765
0	C	0.209009	0.718388	0.122545
0	H	0.691687	0.795093	0.921324
0	H	0.813577	0.177328	0.420273
0	H	0.312448	0.303534	0.620744
0	H	0.192942	0.669175	0.119252
0	C	0.822237	0.911966	0.0896579
0	C	0.684929	0.0605702	0.588697
0	C	0.184707	0.425702	0.449334
0	C	0.318792	0.546727	0.950741
0	H	0.833321	0.883956	0.177378
0	H	0.674452	0.088615	0.676621
0	H	0.17727	0.399574	0.358098
0	H	0.326083	0.573033	0.859729
0	C	0.990665	0.649524	0.87791
0	C	0.514741	0.322668	0.37781
0	C	0.012882	0.161144	0.656663
0	C	0.493114	0.810161	0.158041
0	H	0.0234745	0.690583	0.893197
0	H	0.48226	0.281327	0.392138
0	H	0.980992	0.202363	0.636913
0	H	0.524664	0.768693	0.13846
0	C	0.856561	0.81446	0.49098
0	C	0.649004	0.158831	0.991558
0	C	0.145507	0.328294	0.0329124
0	C	0.359099	0.644425	0.533781
0	H	0.82982	0.858178	0.514144
0	H	0.675614	0.115181	0.0160194
0	H	0.173765	0.370557	0.00522042
0	H	0.330888	0.601995	0.506946
0	C	0.666622	0.709317	0.816535
0	C	0.839704	0.26292	0.315671
0	C	0.337539	0.216026	0.719007
0	C	0.167178	0.756338	0.218257
0	H	0.689296	0.66251	0.807956
0	H	0.817526	0.309922	0.306904
0	H	0.31531	0.168922	0.72343
0	H	0.189071	0.80358	0.223063
0	C	0.0224118	0.593853	0.945024
0	C	0.482106	0.377869	0.445086
0	C	0.979717	0.104346	0.596521
0	C	0.526964	0.866808	0.0986075
0	H	0.99357	0.551291	0.925637
0	H	0.510562	0.420746	0.426656
0	H	0.00750937	0.0622331	0.622199
0	H	0.499588	0.909108	0.124651
0	H	0.0727047	0.585252	0.904705
0	H	0.431893	0.386083	0.404202
0	H	0.929093	0.0981779	0.6373
0	H	0.577564	0.872497	0.139804
0	C	0.837892	0.980089	0.1167
0	C	0.669213	0.992525	0.616463
0	C	0.165087	0.493392	0.427868
0	C	0.33806	0.479008	0.928477
0	H	0.803248	0.998006	0.189571
0	H	0.704124	0.974583	0.688886
0	H	0.200457	0.515394	0.361326
0	H	0.30247	0.457361	0.861893
0	H	0.828826	0.0080683	0.0302188
0	H	0.677773	0.964382	0.530084
0	H	0.169331	0.519569	0.517949
0	H	0.333897	0.452622	0.0183559
0	C	0.900808	0.825696	0.373829
0	C	0.605491	0.14712	0.873608
0	C	0.101956	0.343416	0.149169
0	C	0.403169	0.629611	0.649521
0	H	0.924582	0.782177	0.34379
0	H	0.582042	0.19048	0.841723
0	H	0.0766095	0.301366	0.183287
0	H	0.428925	0.671682	0.682348
0	H	0.869447	0.840352	0.2916
0	H	0.637381	0.131936	0.792631
0	H	0.134066	0.35851	0.229617
0	H	0.371434	0.614945	0.730786
0	C	0.59618	0.702944	0.870988
0	C	0.910132	0.268768	0.370506
0	C	0.408353	0.211107	0.665653
0	C	0.0962859	0.760921	0.165165
0	H	0.573265	0.749344	0.881997
0	H	0.932767	0.222242	0.381275
0	H	0.431103	0.257789	0.659274
0	H	0.0737991	0.714136	0.158703
0	H	0.564444	0.677653	0.802896
0	H	0.942063	0.294019	0.302684
0	H	0.439776	0.184513	0.732083
0	H	0.0647137	0.787227	0.231884
0	C	0.95341	0.875135	0.398955
0	C	0.552596	0.097944	0.898516
0	C	0.0511159	0.393811	0.119561
0	C	0.453592	0.578886	0.619716
0	H	0.928956	0.92031	0.41337
0	H	0.576822	0.052798	0.914533
0	H	0.0771142	0.437614	0.0989974
0	H	0.427239	0.535156	0.600264
0	H	0.985069	0.880823	0.313295
0	H	0.521383	0.0918505	0.812229
0	H	0.0200245	0.402877	0.205307
0	H	0.484967	0.569921	0.705114
0	C	0.909484	0.988681	0.161871
0	C	0.597885	0.984225	0.663194
0	C	0.0944525	0.498475	0.375404
0	C	0.408532	0.473825	0.875291
0	H	0.916101	0.966162	0.255786
0	H	0.59204	0.0067044	0.757375
0	H	0.0924889	0.477623	0.279197
0	H	0.41039	0.495088	0.779483
0	H	0.91937	0.0382073	0.177747
0	H	0.587832	0.934734	0.67928
0	H	0.0812251	0.547524	0.362521
0	H	0.421505	0.424791	0.861405
0	C	0.0282132	0.604068	0.0890517
0	C	0.475928	0.36727	0.588941
0	C	0.974468	0.110043	0.451344
0	C	0.532292	0.861418	0.953368
0	H	0.0618291	0.643731	0.108577
0	H	0.442714	0.327219	0.6076
0	H	0.942283	0.149979	0.426281
0	H	0.564163	0.821306	0.928003
0	H	0.0514036	0.563559	0.134561
0	H	0.452083	0.407385	0.634665
0	H	0.950026	0.0688582	0.411199
0	H	0.557155	0.902483	0.913717
0	C	0.596847	0.669784	0.999914
0	C	0.909666	0.301671	0.499698
0	C	0.408916	0.180957	0.533536
0	C	0.0954674	0.791332	0.0332617
0	H	0.545502	0.665304	0.036182
0	H	0.961013	0.305493	0.536421
0	H	0.460515	0.177943	0.497979
0	H	0.0438139	0.794172	0.997916
0	H	0.61551	0.622279	0.987907
0	H	0.891658	0.349404	0.487991
0	H	0.390898	0.133023	0.540369
0	H	0.11319	0.839355	0.0405263
0	C	0.996715	0.859229	0.515209
0	C	0.508695	0.11454	0.0134602
0	C	0.00644358	0.376275	0.00628287
0	C	0.497847	0.595867	0.505465
0	H	0.0245086	0.815509	0.493503
0	H	0.481323	0.158342	0.990403
0	H	0.977514	0.333949	0.0329508
0	H	0.527248	0.638021	0.531114
0	C	0.959874	0.616744	0.149188
0	C	0.544213	0.355065	0.64976
0	C	0.0434358	0.118781	0.390878
0	C	0.463337	0.853298	0.892428
0	H	0.927158	0.576055	0.131625
0	H	0.576582	0.396023	0.632566
0	H	0.0749661	0.0782018	0.415937
0	H	0.432033	0.893936	0.918086
0	C	0.959865	0.962701	0.0652355
0	C	0.546908	0.010437	0.56798
0	C	0.0431424	0.467378	0.463404
0	C	0.460135	0.504344	0.963502
0	H	0.957906	0.991723	0.977264
0	H	0.547663	0.981182	0.480305
0	H	0.0397436	0.494801	0.553364
0	H	0.463531	0.476568	0.0530287
0	C	0.639847	0.704686	0.0976218
0	C	0.866067	0.267023	0.596776
0	C	0.366066	0.21764	0.438376
0	C	0.138463	0.755163	0.937524
0	H	0.616486	0.750801	0.11486
0	H	0.888828	0.220622	0.613649
0	H	0.388799	0.264385	0.426455
0	H	0.115945	0.708356	0.925033
0	C	0.928171	0.673277	0.0855471
0	C	0.576509	0.298806	0.586174
0	C	0.0760048	0.176949	0.446069
0	C	0.430411	0.7951	0.946697
0	H	0.878373	0.682567	0.125307
0	H	0.626202	0.289636	0.626623
0	H	0.126035	0.18415	0.405551
0	H	0.380463	0.788118	0.905666
0	H	0.957219	0.715464	0.105519
0	H	0.547569	0.256446	0.605176
0	H	0.0476599	0.218737	0.419824
0	H	0.458642	0.753259	0.920436
0	C	0.94289	0.895982	0.0281909
0	C	0.564027	0.0769374	0.529485
0	C	0.0639636	0.401328	0.497992
0	C	0.4398	0.570389	0.999146
0	H	0.951224	0.86436	0.109426
0	H	0.556202	0.108894	0.610364
0	H	0.0597913	0.370519	0.414265
0	H	0.444257	0.601511	0.915963
0	H	0.976442	0.879446	0.952192
0	H	0.530126	0.0932542	0.453847
0	H	0.0298243	0.381638	0.569778
0	H	0.474081	0.589523	0.0713358
0	C	0.953041	0.848566	0.633216
0	C	0.551629	0.125461	0.132348
0	C	0.0491017	0.361558	0.888707
0	C	0.454723	0.610646	0.388551
0	H	0.98347	0.83514	0.716435
0	H	0.520704	0.139304	0.214566
0	H	0.0178146	0.346666	0.807784
0	H	0.485716	0.625201	0.306949
0	H	0.927937	0.891719	0.661853
0	H	0.576267	0.0822763	0.162361
0	H	0.075005	0.403425	0.854801
0	H	0.428327	0.568877	0.355627
0	C	0.710266	0.714703	0.0451861
0	C	0.795595	0.257838	0.543962
0	C	0.295215	0.225526	0.49006
0	C	0.2094	0.747453	0.988926
0	H	0.740199	0.742824	0.112082
0	H	0.765234	0.230018	0.610604
0	H	0.265141	0.254473	0.425183
0	H	0.239476	0.718617	0.923859
0	H	0.736973	0.670393	0.0373015
0	H	0.76947	0.302441	0.535982
0	H	0.269276	0.180701	0.493741
0	H	0.235193	0.79234	0.99259
0	C	0.803096	0.764383	0.469415
0	C	0.702658	0.208752	0.970131
0	C	0.19698	0.276908	0.059323
0	C	0.307567	0.695724	0.560498
0	H	0.772434	0.76325	0.560202
0	H	0.732215	0.210969	0.0622448
0	H	0.224517	0.269158	0.966273
0	H	0.279845	0.703465	0.467694
0	C	0.748657	0.900805	0.054633
0	C	0.758376	0.0713631	0.552281
0	C	0.257968	0.417207	0.489712
0	C	0.245607	0.555288	0.991705
0	H	0.744406	0.850882	0.0273825
0	H	0.763033	0.121455	0.526616
0	H	0.263162	0.36805	0.521999
0	H	0.240457	0.604471	0.0239387
0	C	0.983007	0.64078	0.731988
0	C	0.52313	0.331676	0.232118
0	C	0.0206449	0.156014	0.803371
0	C	0.484948	0.815218	0.304666
0	H	0.957114	0.683204	0.695391
0	H	0.549748	0.289527	0.195924
0	H	0.0470057	0.199085	0.835424
0	H	0.458175	0.772299	0.336434
0	C	0.668577	0.739049	0.682657
0	C	0.83756	0.233072	0.181906
0	C	0.333951	0.243589	0.854819
0	C	0.171056	0.728462	0.353783
0	H	0.723057	0.745393	0.65803
0	H	0.78299	0.226962	0.157607
0	H	0.279212	0.249654	0.877332
0	H	0.225857	0.722713	0.376158
0	C	0.756876	0.781083	0.35891
0	C	0.750153	0.190481	0.86272
0	C	0.247657	0.297356	0.159563
0	C	0.257115	0.675112	0.661038
0	H	0.739126	0.828786	0.364876
0	H	0.769889	0.143895	0.875837
0	H	0.271994	0.340398	0.132161
0	H	0.233129	0.63184	0.634117
0	H	0.713002	0.750743	0.358128
0	H	0.792742	0.222304	0.858452
0	H	0.286683	0.262285	0.172127
0	H	0.217843	0.709924	0.673556
0	H	0.781186	0.775703	0.265859
0	H	0.726016	0.192021	0.768985
0	H	0.224594	0.304285	0.253171
0	H	0.28034	0.668483	0.754578
0	C	0.940399	0.584939	0.696415
0	C	0.565243	0.387966	0.197513
0	C	0.062615	0.100723	0.844938
0	C	0.443281	0.870743	0.345978
0	H	0.890684	0.58847	0.737986
0	H	0.61482	0.384812	0.239829
0	H	0.112529	0.10296	0.803795
0	H	0.393426	0.868776	0.304504
0	H	0.962308	0.541688	0.729372
0	H	0.542709	0.430955	0.230372
0	H	0.0404375	0.056953	0.815808
0	H	0.465827	0.9144	0.317115
0	H	0.934302	0.581386	0.592921
0	H	0.571709	0.3917	0.0941144
0	H	0.0682483	0.0994254	0.948748
0	H	0.437412	0.872034	0.449737
0	C	0.703521	0.91175	0.170199
0	C	0.804073	0.0589225	0.666371
0	C	0.304635	0.426715	0.375833
0	C	0.198749	0.54567	0.878087
0	H	0.720167	0.885171	0.25347
0	H	0.787675	0.0840092	0.75153
0	H	0.290067	0.398124	0.294536
0	H	0.213943	0.573188	0.795652
0	H	0.652152	0.897525	0.149469
0	H	0.855271	0.0736871	0.645709
0	H	0.355997	0.414271	0.400646
0	H	0.147639	0.559334	0.902351
0	H	0.702239	0.960312	0.197902
0	H	0.805816	0.00993345	0.690641
0	H	0.304988	0.474683	0.343579
0	H	0.197302	0.497427	0.84784
0	C	0.638724	0.696057	0.582017
0	C	0.867486	0.275826	0.0809526
0	C	0.362588	0.199236	0.953968
0	C	0.142153	0.772389	0.453509
0	H	0.663402	0.651154	0.582354
0	H	0.842427	0.320542	0.0800883
0	H	0.339386	0.153792	0.947831
0	H	0.165728	0.817722	0.448989
0	H	0.644488	0.715571	0.486183
0	H	0.862354	0.255884	0.985393
0	H	0.354315	0.216574	0.0508883
0	H	0.149851	0.754404	0.550115
0	H	0.585531	0.687704	0.596768
0	H	0.920551	0.284648	0.096436
0	H	0.416427	0.192619	0.942693
0	H	0.088432	0.779435	0.441485
0	C	0.0509288	0.637008	0.666885
0	C	0.455605	0.334666	0.165436
0	C	0.952719	0.154486	0.868817
0	C	0.552658	0.816199	0.370924
0	H	0.0821878	0.676475	0.691725
0	H	0.425195	0.294335	0.188028
0	H	0.921322	0.192776	0.837655
0	H	0.583559	0.777389	0.340731
0	H	0.0456953	0.636608	0.562903
0	H	0.461593	0.336046	0.0616532
0	H	0.957914	0.158043	0.972536
0	H	0.547013	0.813034	0.474615
0	H	0.077951	0.59524	0.693546
0	H	0.427439	0.375633	0.192932
0	H	0.92588	0.111761	0.848926
0	H	0.580131	0.858549	0.350748
0	C	0.831471	0.699658	0.450684
0	C	0.674548	0.273208	0.946744
0	C	0.165421	0.215547	0.0976777
0	C	0.339116	0.757082	0.598935
0	H	0.85658	0.683556	0.537328
0	H	0.648519	0.290317	0.0315226
0	H	0.132182	0.198591	0.0227231
0	H	0.371742	0.774462	0.523417
0	H	0.867459	0.697636	0.371915
0	H	0.639409	0.27424	0.866513
0	H	0.1367	0.219539	0.185989
0	H	0.368477	0.752842	0.686399
0	H	0.792162	0.666482	0.429353
0	H	0.714107	0.306137	0.925378
0	H	0.203369	0.180254	0.112818
0	H	0.301145	0.792163	0.615854
0	C	0.72557	0.939134	0.940309
0	C	0.780341	0.0336961	0.436223
0	C	0.278428	0.458813	0.600834
0	C	0.225354	0.513692	0.10295
0	H	0.756132	0.929585	0.856069
0	H	0.749505	0.0443338	0.352924
0	H	0.24452	0.453659	0.681832
0	H	0.259149	0.519105	0.184106
0	H	0.727987	0.988636	0.959123
0	H	0.777296	0.98408	0.453396
0	H	0.279054	0.507551	0.574206
0	H	0.225167	0.46491	0.0765988
0	H	0.674203	0.928313	0.915041
0	H	0.831751	0.0440822	0.4105
0	H	0.328278	0.44724	0.634584
0	H	0.17536	0.524934	0.136447
0	C	0.63638	0.802784	0.677595
0	C	0.869448	0.169201	0.177229
0	C	0.366384	0.30706	0.865199
0	C	0.139159	0.664718	0.363622
0	H	0.657361	0.833274	0.750504
0	H	0.84836	0.139	0.250571
0	H	0.345747	0.338883	0.794399
0	H	0.159945	0.633251	0.292282
0	H	0.582409	0.800755	0.69245
0	H	0.923427	0.171078	0.191966
0	H	0.420382	0.304892	0.850546
0	H	0.0851165	0.666484	0.34954
0	H	0.645206	0.824754	0.585089
0	H	0.860444	0.147049	0.0849768
0	H	0.357525	0.327329	0.959307
0	H	0.148491	0.644222	0.457375
0	C	0.0301233	0.965643	0.120419
0	C	0.4772	0.00817302	0.625843
0	C	0.974948	0.466549	0.399034
0	C	0.528222	0.504992	0.898717
0	H	0.0672663	0.950761	0.0509446
0	H	0.439496	0.0233164	0.557773
0	H	0.937146	0.445932	0.460396
0	H	0.566161	0.525642	0.959728
0	H	0.0352365	0.936076	0.204722
0	H	0.473335	0.0378956	0.710309
0	H	0.976196	0.439795	0.30963
0	H	0.526933	0.531664	0.809213
0	H	0.0428829	0.0129235	0.149836
0	H	0.464239	0.96105	0.655969
0	H	0.958434	0.513502	0.374808
0	H	0.544581	0.457968	0.874668
0	C	0.0475061	0.910167	0.541062
0	C	0.457361	0.0640138	0.0388222
0	C	0.957235	0.428083	0.976627
0	C	0.54648	0.543647	0.475407
0	H	0.0798828	0.898104	0.621067
0	H	0.424625	0.0765352	0.117968
0	H	0.925279	0.416076	0.89605
0	H	0.577998	0.555167	0.393894
0	H	0.023479	0.953939	0.56452
0	H	0.480869	0.0201246	0.0632808
0	H	0.982469	0.471471	0.952445
0	H	0.52086	0.500305	0.452473
0	H	0.0792145	0.918198	0.458019
0	H	0.426031	0.0560491	0.955209
0	H	0.925011	0.437492	0.0583009
0	H	0.579134	0.534307	0.55646
0	C	0.966055	0.626154	0.29318
0	C	0.538023	0.345268	0.793585
0	C	0.0385436	0.122743	0.245669
0	C	0.468308	0.849947	0.747148
0	H	0.922686	0.650513	0.33231
0	H	0.581575	0.321078	0.832363
0	H	0.0849414	0.139119	0.203367
0	H	0.42196	0.833801	0.704306
0	H	0.0100758	0.653531	0.318925
0	H	0.494254	0.317425	0.818881
0	H	0.998922	0.154376	0.214898
0	H	0.507891	0.818401	0.71577
0	H	0.969789	0.58172	0.343484
0	H	0.533898	0.389493	0.844517
0	H	0.0279453	0.0773175	0.203316
0	H	0.479036	0.895552	0.705767
0	C	0.642291	0.669903	0.224546
0	C	0.863681	0.301569	0.72396
0	C	0.36468	0.186046	0.307909
0	C	0.139519	0.787153	0.807402
0	H	0.672282	0.695073	0.295486
0	H	0.833356	0.276398	0.794413
0	H	0.333981	0.212205	0.239562
0	H	0.170572	0.761553	0.738788
0	H	0.664336	0.624148	0.214132
0	H	0.841896	0.347438	0.713685
0	H	0.343915	0.139585	0.313477
0	H	0.159604	0.833865	0.813525
0	H	0.592577	0.663812	0.264678
0	H	0.913331	0.307306	0.764568
0	H	0.414568	0.182136	0.267464
0	H	0.0895852	0.790559	0.766914
