#******************************************
#
# CIF file created by Zeo++
# Zeo++ is an open source package to
# analyze microporous materials
#
#*******************************************

_cell_length_a		18.8777(0)
_cell_length_b		18.8299(0)
_cell_length_c		5.64538(0)
_cell_angle_alpha		90(0)
_cell_angle_beta		90(0)
_cell_angle_gamma		90(0)

_symmetry_space_group_name_H-M		'P1'
_symmetry_Int_Tables_number		1
_symmetry_cell_setting		Monoclinic

loop_
_symmetry_equiv_pos_as_xyz
'+x,+y,+z'

loop_
_atom_site_label
_atom_site_type_symbol
_atom_site_fract_x
_atom_site_fract_y
_atom_site_fract_z
0	O	0.134861	0.00212054	0.0809476
0	O	0.86198	0.997136	0.0803089
0	O	0.000103157	0.864209	0.938287
0	O	0.99656	0.135044	0.938046
0	O	0.36365	0.502472	0.938296
0	O	0.633132	0.496714	0.93781
0	O	0.495339	0.364458	0.0804804
0	O	0.501427	0.634937	0.0809155
0	O	0.193027	0.0645641	0.734008
0	O	0.803695	0.934605	0.734017
0	O	0.0625157	0.805572	0.284096
0	O	0.934125	0.193633	0.284019
0	O	0.305648	0.564912	0.285354
0	O	0.691043	0.43427	0.285115
0	O	0.43315	0.306346	0.732782
0	O	0.563572	0.692907	0.732819
0	C	0.278208	0.887589	0.670307
0	C	0.71844	0.111543	0.670132
0	C	0.885976	0.720039	0.347429
0	C	0.110659	0.279187	0.347483
0	C	0.219665	0.388324	0.347372
0	C	0.776968	0.610895	0.347301
0	C	0.609516	0.220641	0.67017
0	C	0.387163	0.778526	0.670295
0	C	0.243308	0.85232	0.851026
0	C	0.753386	0.146851	0.850677
0	C	0.850771	0.755098	0.166925
0	C	0.14587	0.244113	0.167015
0	C	0.25458	0.352984	0.166836
0	C	0.742066	0.64624	0.166728
0	C	0.644732	0.255656	0.850809
0	C	0.351987	0.743548	0.851072
0	C	0.194554	0.888178	0.9972
0	C	0.802191	0.111038	0.996772
0	C	0.886527	0.804107	0.0212174
0	C	0.110137	0.195089	0.0213311
0	C	0.303539	0.388699	0.0210425
0	C	0.693138	0.610514	0.0209087
0	C	0.608976	0.304559	0.996879
0	C	0.38777	0.694697	0.997241
0	C	0.180111	0.959248	0.9536
0	C	0.816631	0.0399695	0.953221
0	C	0.957395	0.818643	0.0650464
0	C	0.0392535	0.180581	0.0649916
0	C	0.318179	0.459697	0.0650203
0	C	0.678543	0.5395	0.0647859
0	C	0.538094	0.319024	0.953122
0	C	0.458648	0.68024	0.953457
0	C	0.214715	0.995316	0.762398
0	C	0.781971	0.00384589	0.762276
0	C	0.993427	0.783817	0.255864
0	C	0.00320866	0.215406	0.255778
0	C	0.283586	0.495842	0.256055
0	C	0.713086	0.503352	0.255867
0	C	0.502108	0.284391	0.761965
0	C	0.494606	0.714829	0.762063
0	C	0.264706	0.959972	0.625745
0	C	0.731918	0.0391443	0.625742
0	C	0.958185	0.733581	0.392062
0	C	0.0384492	0.265642	0.392041
0	C	0.233335	0.460668	0.392113
0	C	0.763294	0.538554	0.392061
0	C	0.537322	0.23418	0.625546
0	C	0.459344	0.764976	0.625529
0	C	0.0918199	0.96763	0.260732
0	C	0.904843	0.0315916	0.260685
0	C	0.965796	0.906667	0.756496
0	C	0.0309101	0.0924436	0.756727
0	C	0.405942	0.468243	0.756068
0	C	0.590709	0.531081	0.75622
0	C	0.529547	0.406998	0.262163
0	C	0.46712	0.592247	0.262063
0	C	0.216139	0.100921	0.520335
0	C	0.780479	0.898218	0.520539
0	C	0.098997	0.782092	0.496965
0	C	0.89766	0.217051	0.496993
0	C	0.282028	0.601268	0.498386
0	C	0.714559	0.397987	0.498418
0	C	0.397016	0.282798	0.519345
0	C	0.599635	0.716317	0.519059
0	H	0.166749	0.860453	0.140245
0	H	0.830033	0.138794	0.13968
0	H	0.858847	0.83206	0.87837
0	H	0.137826	0.167105	0.878556
0	H	0.331394	0.360938	0.878114
0	H	0.665273	0.638264	0.87797
0	H	0.636616	0.332515	0.139862
0	H	0.360149	0.66677	0.140326
0	H	0.293033	0.988618	0.486929
0	H	0.703538	0.0104626	0.487155
0	H	0.986784	0.705066	0.530541
0	H	0.00983629	0.294142	0.530533
0	H	0.204954	0.48945	0.530481
0	H	0.791622	0.509765	0.530536
0	H	0.508673	0.205753	0.486987
0	H	0.487959	0.793356	0.486766
0	H	0.12545	0.948601	0.405217
0	H	0.871061	0.0506417	0.404749
0	H	0.947055	0.872451	0.612974
0	H	0.0497662	0.126556	0.613088
0	H	0.371734	0.449526	0.612693
0	H	0.6248	0.549896	0.612658
0	H	0.548521	0.372793	0.405345
0	H	0.448256	0.626328	0.40573
0	H	0.0576067	0.0114607	0.31736
0	H	0.938918	0.987724	0.317642
0	H	0.00949619	0.94089	0.699068
0	H	0.987209	0.058246	0.699316
0	H	0.439977	0.51202	0.698896
0	H	0.556613	0.487263	0.698819
0	H	0.485778	0.440948	0.319908
0	H	0.510874	0.55804	0.319496
0	H	0.0608597	0.923693	0.182681
0	H	0.935905	0.0755089	0.182931
0	H	0.921799	0.937802	0.833082
0	H	0.0748382	0.0613053	0.833729
0	H	0.437033	0.424132	0.832489
0	H	0.559554	0.575048	0.833246
0	H	0.573295	0.438368	0.185093
0	H	0.42334	0.560985	0.184709
0	H	0.190417	0.152927	0.541459
0	H	0.806082	0.846164	0.541869
0	H	0.15089	0.807829	0.475633
0	H	0.845744	0.191379	0.475532
0	H	0.307729	0.653279	0.477535
0	H	0.688922	0.345955	0.477522
0	H	0.345068	0.30842	0.540227
0	H	0.651525	0.690556	0.539614
0	H	0.196481	0.0731387	0.362113
0	H	0.800105	0.925911	0.362432
0	H	0.0714899	0.801655	0.655756
0	H	0.925158	0.197402	0.655681
0	H	0.301395	0.573515	0.657051
0	H	0.695109	0.425767	0.656722
0	H	0.424694	0.302408	0.361
0	H	0.571828	0.696731	0.360845
0	H	0.273761	0.106502	0.519281
0	H	0.72285	0.892682	0.519747
0	H	0.104492	0.72432	0.497227
0	H	0.892205	0.274832	0.49753
0	H	0.224388	0.606719	0.498155
0	H	0.772201	0.392541	0.498518
0	H	0.391689	0.225001	0.518921
0	H	0.605075	0.774101	0.518472
0	Se	0.343073	0.843486	0.45724
0	Se	0.653523	0.155615	0.457199
0	Se	0.841992	0.654865	0.560056
0	Se	0.154624	0.344351	0.560099
0	Se	0.253127	0.753257	0.913701
0	Se	0.74356	0.245941	0.913404
0	Se	0.751999	0.745289	0.10376
0	Se	0.244654	0.25391	0.103838
