#******************************************
#
# CIF file created by Zeo++
# Zeo++ is an open source package to
# analyze microporous materials
#
#*******************************************

_cell_length_a		13.1906(0)
_cell_length_b		8.22328(0)
_cell_length_c		22.0798(0)
_cell_angle_alpha		90(0)
_cell_angle_beta		97.5115(0)
_cell_angle_gamma		90(0)

_symmetry_space_group_name_H-M		'P1'
_symmetry_Int_Tables_number		1
_symmetry_cell_setting		Monoclinic

loop_
_symmetry_equiv_pos_as_xyz
'+x,+y,+z'

loop_
_atom_site_label
_atom_site_type_symbol
_atom_site_fract_x
_atom_site_fract_y
_atom_site_fract_z
0	S	0.390083	0.117091	0.425421
0	S	0.0654676	0.609691	0.0744061
0	S	0.544258	0.914428	0.573231
0	S	0.868663	0.421611	0.924231
0	O	0.508817	0.336935	0.253476
0	O	0.947462	0.835811	0.246318
0	O	0.425447	0.693956	0.74509
0	O	0.986676	0.194723	0.752419
0	O	0.264816	0.912287	0.140931
0	O	0.18988	0.414231	0.360767
0	O	0.66926	0.118791	0.857682
0	O	0.74473	0.617214	0.637893
0	O	0.547277	0.791347	0.0930362
0	O	0.900298	0.301628	0.403168
0	O	0.386743	0.239059	0.905373
0	O	0.0341772	0.72906	0.595344
0	N	0.301221	0.172718	0.307977
0	N	0.156442	0.664393	0.191635
0	N	0.632964	0.858158	0.690674
0	N	0.777725	0.366821	0.806988
0	N	0.618498	0.917031	0.391496
0	N	0.833761	0.42552	0.108155
0	N	0.316051	0.115055	0.607205
0	N	0.100834	0.604277	0.8905
0	N	0.411241	0.0211392	0.115697
0	N	0.0422368	0.525013	0.383853
0	N	0.5231	0.00925931	0.883004
0	N	0.892184	0.505848	0.61476
0	C	0.385642	0.11098	0.345549
0	C	0.0707254	0.605582	0.154351
0	C	0.548636	0.920218	0.653106
0	C	0.863495	0.4254	0.844292
0	C	0.465997	0.0412571	0.322094
0	C	0.98943	0.539382	0.177944
0	C	0.468278	0.989961	0.676561
0	C	0.944906	0.491274	0.820705
0	C	0.470658	0.0439427	0.253783
0	C	0.985384	0.542491	0.246305
0	C	0.463562	0.986982	0.74487
0	C	0.948993	0.488125	0.752349
0	C	0.364881	0.0627581	0.219109
0	C	0.0913227	0.560733	0.280939
0	C	0.56933	0.967996	0.779559
0	C	0.843056	0.470199	0.717699
0	C	0.289083	0.140521	0.244877
0	C	0.168017	0.635119	0.254925
0	C	0.645063	0.890066	0.753801
0	C	0.766258	0.396051	0.743695
0	C	0.190047	0.192909	0.210465
0	C	0.267304	0.686614	0.289338
0	C	0.743929	0.837053	0.788226
0	C	0.666933	0.344821	0.709282
0	C	0.549472	0.971742	0.360143
0	C	0.90418	0.475309	0.139712
0	C	0.38492	0.0597712	0.638527
0	C	0.0302836	0.554979	0.858938
0	C	0.538993	0.179566	0.238573
0	C	0.91706	0.678506	0.261228
0	C	0.39518	0.8513	0.759974
0	C	0.0171544	0.351901	0.737406
0	C	0.627679	0.186247	0.212486
0	C	0.827507	0.685349	0.28642
0	C	0.306309	0.844573	0.785867
0	C	0.106536	0.344788	0.712049
0	C	0.65642	0.355257	0.210638
0	C	0.798274	0.854287	0.287504
0	C	0.277544	0.675572	0.787609
0	C	0.1356	0.175763	0.710958
0	C	0.583626	0.442529	0.235623
0	C	0.871737	0.941393	0.263052
0	C	0.350473	0.588345	0.762732
0	C	0.0621706	0.0889075	0.735537
0	C	0.565517	0.614751	0.247534
0	C	0.889621	0.113496	0.250778
0	C	0.368602	0.416169	0.750754
0	C	0.0441633	0.91683	0.74778
0	C	0.259492	0.12781	0.442314
0	C	0.19558	0.627278	0.0572823
0	C	0.674806	0.903347	0.556324
0	C	0.738539	0.40365	0.941318
0	C	0.200673	0.981358	0.419154
0	C	0.258173	0.486479	0.082475
0	C	0.733829	0.0495923	0.579527
0	C	0.675699	0.544041	0.915992
0	C	0.108227	0.989349	0.386729
0	C	0.349216	0.50269	0.11604
0	C	0.826229	0.0411887	0.611999
0	C	0.584574	0.527296	0.882579
0	C	0.343082	0.992446	0.157602
0	C	0.111725	0.493621	0.343018
0	C	0.591104	0.0383911	0.841044
0	C	0.822737	0.537422	0.655618
0	C	0.398266	0.936348	0.0580232
0	C	0.0506458	0.439972	0.441413
0	C	0.535819	0.0944045	0.940617
0	C	0.883781	0.590758	0.557214
0	C	0.314215	0.969612	0.0142668
0	C	0.132851	0.469871	0.486813
0	C	0.619835	0.0615448	0.984458
0	C	0.801545	0.560837	0.511828
0	C	0.301155	0.884208	0.958977
0	C	0.139886	0.385638	0.542234
0	C	0.632637	0.147159	0.0397042
0	C	0.79446	0.64496	0.456386
0	C	0.372086	0.766144	0.947275
0	C	0.065106	0.272392	0.552439
0	C	0.56139	0.264837	0.051315
0	C	0.869213	0.758221	0.446127
0	C	0.457067	0.731314	0.990152
0	C	0.982121	0.240627	0.507785
0	C	0.476418	0.299196	0.00836955
0	C	0.952225	0.790073	0.490772
0	C	0.469995	0.815733	0.0455779
0	C	0.975254	0.323569	0.452147
0	C	0.463832	0.214776	0.952942
0	C	0.959151	0.707141	0.546414
0	C	0.633153	0.690787	0.0814549
0	C	0.813071	0.201255	0.412526
0	C	0.300521	0.338911	0.916886
0	C	0.121311	0.829645	0.585966
0	H	0.250883	0.253022	0.325839
0	H	0.207215	0.743417	0.173641
0	H	0.683271	0.777844	0.672814
0	H	0.726928	0.287703	0.824951
0	H	0.481211	0.073937	0.128101
0	H	0.97281	0.578371	0.370162
0	H	0.453107	0.956417	0.870577
0	H	0.961493	0.451986	0.628429
0	H	0.505098	0.926569	0.240185
0	H	0.950791	0.425356	0.260087
0	H	0.429117	0.104298	0.758525
0	H	0.983727	0.605126	0.738554
0	H	0.202049	0.283515	0.175129
0	H	0.255712	0.782302	0.322929
0	H	0.731637	0.745281	0.823114
0	H	0.678372	0.248988	0.675704
0	H	0.150029	0.0887865	0.185985
0	H	0.304968	0.58396	0.316003
0	H	0.783764	0.940555	0.813238
0	H	0.629389	0.44748	0.682566
0	H	0.136447	0.248424	0.238704
0	H	0.322721	0.735421	0.260889
0	H	0.797819	0.782596	0.759927
0	H	0.611435	0.296178	0.737704
0	H	0.66987	0.0871667	0.196302
0	H	0.785233	0.586373	0.302642
0	H	0.263996	0.943581	0.802004
0	H	0.148807	0.443625	0.695711
0	H	0.722238	0.401034	0.192373
0	H	0.731665	0.900113	0.304924
0	H	0.211585	0.629757	0.805713
0	H	0.202051	0.129748	0.693413
0	H	0.629479	0.691198	0.236701
0	H	0.826344	0.190342	0.262327
0	H	0.304346	0.339674	0.761286
0	H	0.10717	0.839824	0.735935
0	H	0.556394	0.63621	0.295884
0	H	0.897169	0.134658	0.202187
0	H	0.378209	0.39497	0.702466
0	H	0.0370578	0.895482	0.796415
0	H	0.495414	0.659062	0.219674
0	H	0.960536	0.157769	0.277804
0	H	0.43841	0.371557	0.778822
0	H	0.972985	0.872936	0.720948
0	H	0.265665	0.136181	0.49334
0	H	0.18899	0.631485	0.00619062
0	H	0.668618	0.895097	0.505297
0	H	0.745101	0.399701	0.992411
0	H	0.222268	0.244642	0.425483
0	H	0.2295	0.74747	0.0729438
0	H	0.711916	0.78638	0.573088
0	H	0.704876	0.283275	0.925755
0	H	0.237852	0.864748	0.431255
0	H	0.224794	0.366739	0.0711957
0	H	0.69681	0.166307	0.567421
0	H	0.708947	0.663993	0.927062
0	H	0.0647502	0.883337	0.369795
0	H	0.395055	0.400737	0.134702
0	H	0.869859	0.147028	0.628958
0	H	0.538508	0.628918	0.863836
0	H	0.0684512	0.102371	0.374754
0	H	0.385532	0.619039	0.127176
0	H	0.865792	0.927997	0.62398
0	H	0.548416	0.410773	0.87165
0	H	0.258343	0.0606217	0.0239902
0	H	0.191793	0.556984	0.478297
0	H	0.675837	0.970656	0.974821
0	H	0.742608	0.473756	0.52036
0	H	0.234805	0.908541	0.925278
0	H	0.204667	0.406839	0.577371
0	H	0.698969	0.123185	0.073466
0	H	0.729684	0.623679	0.421266
0	H	0.360755	0.699469	0.90403
0	H	0.0718989	0.20677	0.595843
0	H	0.572469	0.331609	0.0945504
0	H	0.862391	0.823721	0.402703
0	H	0.511802	0.639116	0.980142
0	H	0.924379	0.152234	0.51666
0	H	0.421413	0.39101	0.0183309
0	H	0.00996972	0.87853	0.481864
0	H	0.672152	0.74528	0.0456875
0	H	0.772683	0.254025	0.448045
0	H	0.261098	0.283295	0.952247
0	H	0.161502	0.777327	0.550272
0	H	0.68156	0.693779	0.125845
0	H	0.766478	0.207287	0.367616
0	H	0.252641	0.336716	0.872316
0	H	0.168131	0.823176	0.630796
0	H	0.60792	0.566491	0.0698122
0	H	0.837394	0.0761567	0.423563
0	H	0.325396	0.463099	0.929027
0	H	0.0968732	0.954809	0.575161
