#******************************************
#
# CIF file created by Zeo++
# Zeo++ is an open source package to
# analyze microporous materials
#
#*******************************************

_cell_length_a		17.4816(0)
_cell_length_b		16.898(0)
_cell_length_c		10.5325(0)
_cell_angle_alpha		90(0)
_cell_angle_beta		90(0)
_cell_angle_gamma		118.246(0)

_symmetry_space_group_name_H-M		'P1'
_symmetry_Int_Tables_number		1
_symmetry_cell_setting		Monoclinic

loop_
_symmetry_equiv_pos_as_xyz
'+x,+y,+z'

loop_
_atom_site_label
_atom_site_type_symbol
_atom_site_fract_x
_atom_site_fract_y
_atom_site_fract_z
0	C	0.362508	0.906168	0.455359
0	C	0.110346	0.519897	0.116476
0	C	0.49696	0.636439	0.772738
0	C	0.632516	0.142308	0.954428
0	C	0.883799	0.528066	0.613333
0	C	0.497523	0.411757	0.274409
0	H	0.342548	0.866633	0.364272
0	H	0.144558	0.537308	0.0219936
0	H	0.480128	0.655088	0.6781
0	H	0.653061	0.182499	0.863918
0	H	0.849146	0.510638	0.519167
0	H	0.51439	0.393992	0.179208
0	C	0.451594	0.989766	0.435271
0	C	0.0246768	0.524907	0.105458
0	C	0.493027	0.543431	0.762314
0	C	0.543419	0.0590465	0.932757
0	C	0.96962	0.523522	0.600927
0	C	0.501588	0.504926	0.266265
0	H	0.445614	0.0353093	0.364418
0	H	0.979118	0.471529	0.0406198
0	H	0.543691	0.547032	0.695203
0	H	0.549727	0.0136012	0.862088
0	H	0.014272	0.576431	0.534604
0	H	0.450814	0.50203	0.200017
0	H	0.473039	0.0289376	0.524627
0	H	0.992129	0.510775	0.199385
0	H	0.509122	0.524496	0.855565
0	H	0.521099	0.0196008	0.0217724
0	H	0.00321788	0.538855	0.694072
0	H	0.485784	0.523082	0.360336
0	C	0.519935	0.96398	0.391221
0	C	0.0403719	0.616598	0.0579482
0	C	0.404065	0.471439	0.718531
0	C	0.475699	0.0853477	0.887424
0	C	0.954025	0.43157	0.554821
0	C	0.590526	0.577198	0.222826
0	H	0.525613	0.916018	0.456944
0	H	0.0899054	0.671724	0.115452
0	H	0.351553	0.470057	0.778349
0	H	0.469696	0.1332	0.952937
0	H	0.9048	0.376796	0.613161
0	H	0.643027	0.578821	0.282963
0	H	0.584185	0.0231286	0.386163
0	H	0.980991	0.623062	0.0633735
0	H	0.399091	0.404391	0.724017
0	H	0.411365	0.0263632	0.881314
0	H	0.0135161	0.425343	0.560274
0	H	0.59519	0.644116	0.228224
0	H	0.504917	0.932716	0.297158
0	H	0.0624927	0.628001	0.959167
0	H	0.390864	0.482483	0.620325
0	H	0.491569	0.116873	0.793559
0	H	0.931508	0.419373	0.456254
0	H	0.604106	0.566311	0.124747
0	C	0.364367	0.843976	0.561027
0	C	0.172587	0.585393	0.216275
0	C	0.433678	0.639145	0.872197
0	C	0.630207	0.203767	0.0609006
0	C	0.822112	0.462334	0.713374
0	C	0.560717	0.408082	0.373196
0	H	0.299438	0.784694	0.569447
0	H	0.23338	0.580265	0.218221
0	H	0.439611	0.707447	0.874061
0	H	0.695004	0.263161	0.0699371
0	H	0.761122	0.467078	0.715816
0	H	0.554285	0.339615	0.374357
0	H	0.40936	0.817771	0.531496
0	H	0.191547	0.655367	0.185145
0	H	0.365929	0.59338	0.840833
0	H	0.585018	0.229825	0.0317743
0	H	0.80341	0.392446	0.682118
0	H	0.628509	0.453576	0.341796
0	C	0.392682	0.889363	0.691083
0	C	0.134212	0.57138	0.350348
0	C	0.446397	0.612005	0.00623902
0	C	0.601767	0.157573	0.190441
0	C	0.860815	0.476518	0.847252
0	C	0.548369	0.434914	0.507629
0	H	0.458819	0.947421	0.684298
0	H	0.073808	0.577593	0.348735
0	H	0.437667	0.542536	0.00482831
0	H	0.535943	0.0991266	0.182876
0	H	0.921667	0.471184	0.845123
0	H	0.55732	0.504501	0.506919
0	H	0.348851	0.91731	0.719969
0	H	0.114688	0.501543	0.382732
0	H	0.514444	0.656077	0.0380646
0	H	0.645996	0.130073	0.219122
0	H	0.879591	0.54613	0.880047
0	H	0.480347	0.390934	0.539601
0	C	0.391529	0.82388	0.791808
0	C	0.198513	0.639275	0.443755
0	C	0.382336	0.617284	0.0998734
0	C	0.601884	0.222099	0.291941
0	C	0.797082	0.407927	0.940517
0	C	0.612507	0.429143	0.600561
0	H	0.326365	0.76748	0.805336
0	H	0.25665	0.631206	0.455403
0	H	0.390442	0.685435	0.107212
0	H	0.666711	0.278924	0.306113
0	H	0.738592	0.415277	0.952767
0	H	0.604243	0.360901	0.607197
0	H	0.414374	0.857617	0.883412
0	H	0.168889	0.633049	0.537371
0	H	0.38992	0.595664	0.19493
0	H	0.579087	0.187736	0.383161
0	H	0.826953	0.414134	0.0339214
0	H	0.605194	0.450497	0.695921
0	H	0.4346	0.795648	0.765383
0	H	0.219685	0.708307	0.410511
0	H	0.315057	0.57298	0.0696444
0	H	0.558256	0.249733	0.265886
0	H	0.776438	0.339117	0.90672
0	H	0.679747	0.473432	0.570106
0	C	0.153639	0.828112	0.567702
0	C	0.199569	0.388912	0.230631
0	C	0.627366	0.853034	0.88805
0	C	0.841225	0.219301	0.066852
0	C	0.793987	0.658488	0.727987
0	C	0.366983	0.194954	0.389001
0	C	0.163847	0.841724	0.353964
0	C	0.187677	0.38872	0.0166735
0	C	0.626231	0.84165	0.673923
0	C	0.830941	0.205863	0.852955
0	C	0.80628	0.659001	0.514144
0	C	0.368031	0.206253	0.174842
0	C	0.17551	0.846618	0.706758
0	C	0.180777	0.39183	0.369858
0	C	0.623174	0.829552	0.0270024
0	C	0.819342	0.201148	0.205969
0	C	0.812687	0.655527	0.867238
0	C	0.370896	0.218183	0.528041
0	H	0.248034	0.887795	0.719207
0	H	0.137497	0.424011	0.382731
0	H	0.59386	0.754377	0.0382212
0	H	0.746799	0.160023	0.218391
0	H	0.855727	0.623056	0.880147
0	H	0.400387	0.293347	0.539611
0	C	0.138252	0.760379	0.784186
0	C	0.263793	0.439534	0.447371
0	C	0.573857	0.867139	0.103634
0	C	0.856394	0.287598	0.282933
0	C	0.72976	0.608313	0.945035
0	C	0.419695	0.180093	0.604867
0	H	0.150563	0.775463	0.88597
0	H	0.248897	0.438574	0.548938
0	H	0.568956	0.846881	0.203752
0	H	0.843679	0.272804	0.38474
0	H	0.744822	0.609777	0.0465921
0	H	0.424835	0.200593	0.70492
0	H	0.166563	0.717473	0.755866
0	H	0.302442	0.509556	0.417351
0	H	0.508228	0.843888	0.0661752
0	H	0.828146	0.330398	0.253712
0	H	0.690939	0.538158	0.915747
0	H	0.485197	0.202661	0.567336
0	H	0.0673338	0.721687	0.772175
0	H	0.304408	0.406117	0.437119
0	H	0.607708	0.941132	0.101802
0	H	0.927349	0.326414	0.271524
0	H	0.689257	0.641823	0.934412
0	H	0.385257	0.106089	0.60335
0	C	0.16808	0.986747	0.71314
0	C	0.048336	0.249104	0.381647
0	C	0.763739	0.833725	0.0425491
0	C	0.826282	0.0608595	0.213264
0	C	0.945357	0.798167	0.878638
0	C	0.230506	0.214472	0.543079
0	H	0.23728	0.0263393	0.735021
0	H	0.00914822	0.279535	0.415735
0	H	0.735808	0.763704	0.0732358
0	H	0.756992	0.0216144	0.234765
0	H	0.984559	0.767756	0.912742
0	H	0.258494	0.284365	0.574374
0	H	0.129625	0.0113706	0.765986
0	H	0.0291708	0.184406	0.428134
0	H	0.824637	0.875696	0.0925894
0	H	0.864309	0.0359543	0.26661
0	H	0.964623	0.862951	0.924947
0	H	0.169373	0.17242	0.592598
0	H	0.157261	0.987627	0.610898
0	H	0.0429731	0.240829	0.278347
0	H	0.774235	0.83879	0.939647
0	H	0.837328	0.0598023	0.111114
0	H	0.950573	0.806288	0.775323
0	H	0.220318	0.20985	0.440114
0	C	0.198335	0.875264	0.223256
0	C	0.155244	0.392964	0.886025
0	C	0.619207	0.804285	0.54251
0	C	0.796352	0.172433	0.722119
0	C	0.838753	0.654526	0.383706
0	C	0.374988	0.243427	0.0432827
0	H	0.252756	0.945842	0.22701
0	H	0.0854714	0.377447	0.888875
0	H	0.632471	0.745607	0.543002
0	H	0.742061	0.101791	0.725889
0	H	0.908561	0.670165	0.386573
0	H	0.362869	0.302854	0.0438784
0	C	0.127338	0.867535	0.132657
0	C	0.16881	0.331904	0.792958
0	C	0.677599	0.875329	0.448057
0	C	0.867306	0.180355	0.631223
0	C	0.825024	0.715187	0.290147
0	C	0.315397	0.172717	0.949366
0	H	0.152458	0.888694	0.0361009
0	H	0.147689	0.337377	0.696709
0	H	0.671354	0.8477	0.351986
0	H	0.842168	0.159542	0.534575
0	H	0.846205	0.709562	0.194014
0	H	0.321608	0.200363	0.853304
0	H	0.0986182	0.909647	0.163896
0	H	0.131826	0.261217	0.821857
0	H	0.746198	0.903717	0.475634
0	H	0.895896	0.138025	0.661932
0	H	0.861865	0.785941	0.318784
0	H	0.247046	0.14543	0.977656
0	H	0.074423	0.798096	0.127171
0	H	0.237531	0.348066	0.788056
0	H	0.662543	0.931458	0.443021
0	H	0.920319	0.249748	0.626057
0	H	0.75625	0.698861	0.285149
0	H	0.329307	0.115817	0.943915
0	C	0.299551	0.854132	0.088449
0	C	0.172411	0.517571	0.752036
0	C	0.496187	0.708621	0.409827
0	C	0.695293	0.193729	0.586479
0	C	0.821802	0.529401	0.251472
0	C	0.498331	0.337894	0.910234
0	H	0.275849	0.87363	0.00403591
0	H	0.161511	0.477434	0.665766
0	H	0.529716	0.73963	0.320982
0	H	0.719645	0.175445	0.50161
0	H	0.833118	0.569372	0.164977
0	H	0.464824	0.307486	0.821094
0	H	0.313571	0.798869	0.0667675
0	H	0.223259	0.586819	0.736538
0	H	0.427471	0.691647	0.404501
0	H	0.680903	0.2489	0.565907
0	H	0.771093	0.46007	0.236094
0	H	0.566875	0.354144	0.905075
0	H	0.356555	0.912068	0.127857
0	H	0.111893	0.515479	0.784217
0	H	0.503522	0.649308	0.432768
0	H	0.638241	0.13515	0.624483
0	H	0.882215	0.531657	0.284631
0	H	0.491643	0.397512	0.933627
0	N	0.21167	0.875514	0.468309
0	N	0.152139	0.40167	0.131394
0	N	0.612196	0.79166	0.78803
0	N	0.78313	0.172113	0.967376
0	N	0.841675	0.645992	0.628909
0	N	0.382341	0.256385	0.288973
0	N	0.0767394	0.76899	0.513635
0	N	0.260238	0.370787	0.176002
0	N	0.647947	0.934066	0.83447
0	N	0.918211	0.278207	0.0128148
0	N	0.733315	0.676539	0.673141
0	N	0.346245	0.113872	0.335497
0	N	0.0826791	0.777155	0.386286
0	N	0.253204	0.370509	0.0486168
0	N	0.647406	0.927489	0.706975
0	N	0.912217	0.270139	0.885468
0	N	0.740552	0.676967	0.545793
0	N	0.346884	0.120457	0.207987
0	N	0.298211	0.939242	0.490556
0	N	0.0856155	0.423866	0.153347
0	N	0.58969	0.701601	0.809744
0	N	0.696458	0.108764	0.989646
0	N	0.908249	0.623892	0.650912
0	N	0.404755	0.346387	0.310936
0	H	0.311997	0.998827	0.441366
0	H	0.0293349	0.377937	0.104549
0	H	0.633916	0.686405	0.761235
0	H	0.682359	0.0490825	0.940558
0	H	0.964684	0.670152	0.602695
0	H	0.360448	0.36165	0.262765
0	O	0.232241	0.815321	0.183002
0	O	0.208909	0.486843	0.850907
0	O	0.527863	0.772726	0.512028
0	O	0.762017	0.232035	0.682044
0	O	0.785166	0.560368	0.349785
0	O	0.465884	0.273294	0.0117479
0	O	0.133995	0.895668	0.758806
0	O	0.137813	0.30183	0.420529
0	O	0.70922	0.872339	0.0809853
0	O	0.860673	0.152079	0.25859
0	O	0.855944	0.745554	0.91781
0	O	0.284685	0.175454	0.581443
