#******************************************
#
# CIF file created by Zeo++
# Zeo++ is an open source package to
# analyze microporous materials
#
#*******************************************

_cell_length_a		15.4899(0)
_cell_length_b		9.71834(0)
_cell_length_c		11.5232(0)
_cell_angle_alpha		90(0)
_cell_angle_beta		91.8041(0)
_cell_angle_gamma		90(0)

_symmetry_space_group_name_H-M		'P1'
_symmetry_Int_Tables_number		1
_symmetry_cell_setting		Monoclinic

loop_
_symmetry_equiv_pos_as_xyz
'+x,+y,+z'

loop_
_atom_site_label
_atom_site_type_symbol
_atom_site_fract_x
_atom_site_fract_y
_atom_site_fract_z
0	C	0.262298	0.876475	0.143667
0	C	0.790309	0.876625	0.860379
0	C	0.777481	0.3645	0.142667
0	C	0.275193	0.364514	0.861254
0	H	0.214043	0.916337	0.0768015
0	H	0.838497	0.91657	0.927286
0	H	0.729156	0.403066	0.0755932
0	H	0.323586	0.403241	0.928157
0	C	0.355161	0.930063	0.124003
0	C	0.697474	0.930221	0.880151
0	C	0.870222	0.419138	0.122886
0	C	0.182494	0.419235	0.881161
0	H	0.396134	0.935076	0.205857
0	H	0.656407	0.935324	0.798355
0	H	0.911567	0.424611	0.204062
0	H	0.141147	0.424767	0.800048
0	O	0.34581	0.0608865	0.0715491
0	O	0.706868	0.0610373	0.932632
0	O	0.859727	0.549447	0.0695383
0	O	0.193041	0.54954	0.934541
0	C	0.421665	0.149269	0.0832147
0	C	0.631037	0.149492	0.921029
0	C	0.934043	0.640686	0.0824934
0	C	0.118732	0.640795	0.921706
0	H	0.405497	0.227423	0.0157132
0	H	0.647295	0.227778	0.988452
0	H	0.919928	0.714037	0.0109454
0	H	0.13295	0.71414	0.993149
0	H	0.479559	0.090859	0.0590621
0	H	0.573132	0.0911622	0.945352
0	H	0.993946	0.581985	0.0656464
0	H	0.0588467	0.582132	0.938696
0	C	0.428525	0.209182	0.205482
0	C	0.624106	0.209252	0.798715
0	C	0.934611	0.707416	0.202142
0	C	0.118006	0.707448	0.802006
0	H	0.374304	0.282217	0.218458
0	H	0.678232	0.282291	0.785661
0	H	0.878095	0.777629	0.208216
0	H	0.174452	0.777747	0.795837
0	H	0.420006	0.127364	0.271341
0	H	0.632663	0.127345	0.732939
0	H	0.925575	0.628875	0.270561
0	H	0.127042	0.6289	0.733595
0	C	0.514573	0.281507	0.228313
0	C	0.537976	0.281279	0.775916
0	C	0.0184166	0.78507	0.226761
0	C	0.0341243	0.784975	0.77744
0	H	0.51232	0.340192	0.310249
0	H	0.540069	0.339887	0.693743
0	H	0.0140391	0.840256	0.309885
0	H	0.0383048	0.839852	0.694252
0	H	0.529717	0.35484	0.15954
0	H	0.52284	0.354835	0.844569
0	H	0.0308296	0.861984	0.159354
0	H	0.0217567	0.862026	0.844712
0	H	0.568405	0.208414	0.236384
0	H	0.484212	0.20809	0.768068
0	H	0.0740598	0.714952	0.233115
0	H	0.978483	0.714807	0.771347
0	C	0.39309	0.820171	0.042089
0	C	0.659616	0.820217	0.962044
0	C	0.908419	0.310118	0.0403358
0	C	0.144306	0.310205	0.963684
0	H	0.464793	0.810233	0.0621997
0	H	0.587887	0.810139	0.941738
0	H	0.980377	0.301146	0.059941
0	H	0.0723991	0.301242	0.944003
0	N	0.381138	0.858028	0.914773
0	N	0.671398	0.858051	0.0893313
0	N	0.895839	0.350916	0.914198
0	N	0.156777	0.351008	0.0898486
0	O	0.309023	0.859748	0.870209
0	O	0.74344	0.859898	0.134104
0	O	0.823836	0.353875	0.870062
0	O	0.228739	0.353982	0.134141
0	O	0.44761	0.883678	0.864849
0	O	0.604801	0.883524	0.139055
0	O	0.962287	0.378989	0.864341
0	O	0.0902666	0.379077	0.139555
0	C	0.344995	0.687717	0.0754759
0	C	0.707773	0.687814	0.928537
0	C	0.860905	0.177045	0.0735683
0	C	0.191844	0.177122	0.930666
0	H	0.318998	0.627848	0.999059
0	H	0.733954	0.628006	0.00507707
0	H	0.835229	0.117289	0.996543
0	H	0.217513	0.117462	0.00767626
0	O	0.265605	0.730156	0.132057
0	O	0.787045	0.730286	0.87189
0	O	0.781841	0.218128	0.131351
0	O	0.270892	0.218171	0.872756
0	C	0.396831	0.597097	0.162701
0	C	0.655909	0.597105	0.841604
0	C	0.912467	0.0889859	0.162147
0	C	0.140263	0.0883649	0.842145
0	H	0.355396	0.565787	0.235976
0	H	0.697338	0.565641	0.768703
0	H	0.869133	0.051996	0.23197
0	H	0.183645	0.0518002	0.772414
0	H	0.421436	0.50468	0.119986
0	H	0.63135	0.504589	0.884365
0	H	0.942871	0.999406	0.120811
0	H	0.110034	0.999315	0.883286
0	O	0.466164	0.67433	0.21624
0	O	0.586571	0.674286	0.788073
0	O	0.975876	0.170589	0.222819
0	O	0.0769572	0.170555	0.781391
0	H	0.523355	0.637558	0.194088
0	H	0.529401	0.637102	0.809764
0	H	0.033752	0.158638	0.188151
0	H	0.0190331	0.158337	0.815595
0	N	0.23228	0.907449	0.262167
0	N	0.820166	0.907426	0.741762
0	N	0.747991	0.396495	0.261302
0	N	0.304529	0.396372	0.742488
0	C	0.159744	0.997286	0.268625
0	C	0.892659	0.997035	0.734945
0	C	0.674145	0.48309	0.270198
0	C	0.378448	0.482874	0.733389
0	O	0.130093	0.0531484	0.180203
0	O	0.922504	0.0530281	0.823414
0	O	0.638511	0.535656	0.184322
0	O	0.414091	0.535486	0.819223
0	N	0.125865	0.0173796	0.378777
0	N	0.926413	0.0170594	0.624777
0	N	0.645279	0.505795	0.383064
0	N	0.407198	0.505495	0.620499
0	H	0.0648202	0.0645862	0.381015
0	H	0.987587	0.0637134	0.622182
0	H	0.589506	0.563841	0.39059
0	H	0.462938	0.563614	0.612592
0	C	0.163253	0.960935	0.485227
0	C	0.888897	0.960693	0.518441
0	C	0.683597	0.446545	0.487822
0	C	0.368632	0.446219	0.515865
0	O	0.126519	0.988887	0.573849
0	O	0.925632	0.988168	0.429738
0	O	0.648321	0.474888	0.577273
0	O	0.403827	0.474766	0.42629
0	C	0.241177	0.877122	0.470329
0	C	0.810995	0.877085	0.533639
0	C	0.759794	0.360624	0.469379
0	C	0.292355	0.36024	0.534418
0	C	0.285451	0.819905	0.576439
0	C	0.766792	0.819543	0.427543
0	C	0.803491	0.299605	0.574586
0	C	0.248559	0.299513	0.429335
0	H	0.26767	0.874708	0.656212
0	H	0.78435	0.874125	0.347558
0	H	0.78779	0.355348	0.654898
0	H	0.264144	0.355132	0.348878
0	H	0.356217	0.827039	0.572647
0	H	0.696027	0.826597	0.431555
0	H	0.87432	0.301602	0.569893
0	H	0.17775	0.301352	0.434212
0	H	0.268767	0.711	0.588979
0	H	0.783547	0.710597	0.414953
0	H	0.783766	0.192046	0.587176
0	H	0.268487	0.192042	0.4167
0	C	0.270822	0.848936	0.363096
0	C	0.781321	0.849055	0.640967
0	C	0.787887	0.33574	0.360695
0	C	0.264396	0.335772	0.643192
0	H	0.326393	0.780315	0.348761
0	H	0.725577	0.780837	0.655376
0	H	0.843295	0.267569	0.343186
0	H	0.20891	0.267748	0.660647
