#******************************************
#
# CIF file created by Zeo++
# Zeo++ is an open source package to
# analyze microporous materials
#
#*******************************************

_cell_length_a		16.8195(0)
_cell_length_b		17.4144(0)
_cell_length_c		19.9906(0)
_cell_angle_alpha		90(0)
_cell_angle_beta		90(0)
_cell_angle_gamma		118.47(0)

_symmetry_space_group_name_H-M		'P1'
_symmetry_Int_Tables_number		1
_symmetry_cell_setting		Monoclinic

loop_
_symmetry_equiv_pos_as_xyz
'+x,+y,+z'

loop_
_atom_site_label
_atom_site_type_symbol
_atom_site_fract_x
_atom_site_fract_y
_atom_site_fract_z
0	C	0.188359	0.596121	0.746834
0	C	0.44249	0.599752	0.125129
0	C	0.441941	0.846925	0.453908
0	C	0.82427	0.416833	0.260084
0	C	0.602912	0.425133	0.627241
0	C	0.601132	0.172912	0.948006
0	C	0.0868213	0.637245	0.802153
0	C	0.407753	0.455574	0.164226
0	C	0.59136	0.94304	0.495663
0	C	0.941076	0.382936	0.296474
0	C	0.642559	0.569722	0.667276
0	C	0.450824	0.072075	0.987198
0	C	0.254277	0.619959	0.691669
0	C	0.424714	0.644541	0.0682719
0	C	0.397658	0.789573	0.395493
0	C	0.75855	0.394427	0.204408
0	C	0.61605	0.379119	0.568767
0	C	0.650435	0.234004	0.892354
0	H	0.227871	0.572692	0.649475
0	H	0.478501	0.665121	0.0299183
0	H	0.425768	0.824358	0.347819
0	H	0.79049	0.426879	0.1565
0	H	0.556838	0.352587	0.535335
0	H	0.657088	0.19863	0.848747
0	H	0.319077	0.622203	0.706325
0	H	0.423869	0.70508	0.0858226
0	H	0.324404	0.76771	0.395069
0	H	0.705434	0.41303	0.214834
0	H	0.625131	0.322991	0.586857
0	H	0.719896	0.282451	0.908201
0	H	0.272608	0.685134	0.670053
0	H	0.35914	0.603276	0.0443108
0	H	0.407541	0.731314	0.396077
0	H	0.724349	0.32382	0.192968
0	H	0.676905	0.422346	0.54012
0	H	0.616424	0.271327	0.875911
0	C	0.997779	0.545827	0.80716
0	C	0.505841	0.461298	0.169652
0	C	0.5912	0.0350266	0.495024
0	C	0.0298874	0.478163	0.297463
0	C	0.54494	0.564951	0.676333
0	C	0.452636	0.980754	0.989811
0	C	0.934387	0.56989	0.849822
0	C	0.482297	0.371717	0.203951
0	C	0.684084	0.0982991	0.526742
0	C	0.101738	0.457195	0.329285
0	C	0.571284	0.655211	0.709472
0	C	0.360091	0.918157	0.0236696
0	H	0.875836	0.563867	0.820017
0	H	0.490003	0.325673	0.169633
0	H	0.734465	0.139287	0.488636
0	H	0.153324	0.459544	0.29343
0	H	0.564022	0.701357	0.674974
0	H	0.311277	0.872477	0.987033
0	C	0.000475749	0.666222	0.871742
0	C	0.3832	0.339837	0.229348
0	C	0.709453	0.0314316	0.560636
0	C	0.0422994	0.363364	0.359524
0	C	0.671132	0.685831	0.732962
0	C	0.330974	0.985263	0.0517905
0	C	0.0721171	0.658655	0.919705
0	C	0.391729	0.413136	0.28098
0	C	0.629903	0.975632	0.6119
0	C	0.977372	0.372631	0.413028
0	C	0.663428	0.612038	0.783801
0	C	0.407567	0.0452217	0.10359
0	H	0.0361087	0.594035	0.946127
0	H	0.461091	0.442991	0.303809
0	H	0.603184	0.0195691	0.631108
0	H	0.0136855	0.438897	0.436717
0	H	0.594669	0.582789	0.807859
0	H	0.434554	0.00376792	0.126857
0	C	0.114076	0.729594	0.972917
0	C	0.325037	0.381974	0.339354
0	C	0.657263	0.940261	0.672479
0	C	0.947494	0.306078	0.469581
0	C	0.730659	0.641193	0.841342
0	C	0.377215	0.0846515	0.160069
0	H	0.178871	0.732063	0.993824
0	H	0.315181	0.437143	0.358438
0	H	0.598325	0.877932	0.690639
0	H	0.877618	0.293106	0.489202
0	H	0.737693	0.582728	0.861403
0	H	0.436314	0.146454	0.178525
0	H	0.136508	0.795497	0.951125
0	H	0.256441	0.331544	0.323018
0	H	0.710204	0.921942	0.659106
0	H	0.935314	0.240802	0.452463
0	H	0.80098	0.687491	0.825727
0	H	0.327334	0.104301	0.140942
0	C	0.055064	0.716478	0.0324811
0	C	0.354327	0.345715	0.397076
0	C	0.687585	0.00164652	0.731179
0	C	0.00717081	0.334347	0.529966
0	C	0.702784	0.677039	0.8994
0	C	0.340009	0.0271236	0.220246
0	C	0.11341	0.497193	0.839403
0	C	0.547297	0.614691	0.209043
0	C	0.429931	0.942894	0.531743
0	C	0.915843	0.522806	0.339711
0	C	0.503944	0.412174	0.715348
0	C	0.612789	0.0799326	0.028731
0	C	0.176571	0.589304	0.87274
0	C	0.448827	0.581056	0.239687
0	C	0.45591	0.876196	0.567768
0	C	0.857493	0.4297	0.374161
0	C	0.604399	0.444369	0.74226
0	C	0.58233	0.144745	0.0621955
0	C	0.143104	0.658375	0.868559
0	C	0.383946	0.481117	0.234473
0	C	0.557984	0.901517	0.566858
0	C	0.897341	0.365475	0.368613
0	C	0.669144	0.543915	0.73616
0	C	0.479988	0.11715	0.0577217
0	C	0.217668	0.585118	0.938937
0	C	0.448269	0.623082	0.305894
0	C	0.406812	0.839977	0.633292
0	C	0.81802	0.43501	0.440816
0	C	0.609595	0.401359	0.806607
0	C	0.626389	0.180617	0.129437
0	H	0.231457	0.643529	0.971432
0	H	0.388302	0.578563	0.33587
0	H	0.447824	0.821277	0.666991
0	H	0.802014	0.375531	0.472664
0	H	0.674227	0.443883	0.834555
0	H	0.581388	0.195784	0.16124
0	H	0.286046	0.591394	0.932498
0	H	0.439727	0.682173	0.29597
0	H	0.343696	0.777542	0.623835
0	H	0.75193	0.433364	0.43352
0	H	0.616084	0.342003	0.794699
0	H	0.688196	0.244847	0.121655
0	C	0.155174	0.501275	0.975967
0	C	0.533938	0.647704	0.346363
0	C	0.386207	0.906437	0.668221
0	C	0.881964	0.516593	0.479645
0	C	0.528695	0.37999	0.851746
0	C	0.649264	0.116107	0.165239
0	H	0.0886726	0.498918	0.98426
0	H	0.540627	0.58839	0.356088
0	H	0.450568	0.967474	0.677065
0	H	0.946493	0.515728	0.489117
0	H	0.527476	0.441296	0.864741
0	H	0.586643	0.0524587	0.170362
0	H	0.182657	0.503418	0.0269314
0	H	0.526775	0.671642	0.396285
0	H	0.359069	0.882073	0.719216
0	H	0.853724	0.513455	0.530629
0	H	0.539046	0.354757	0.900221
0	H	0.671751	0.139159	0.217189
0	C	0.143246	0.418197	0.93922
0	C	0.620115	0.718969	0.31171
0	C	0.318612	0.926037	0.628896
0	C	0.897984	0.602241	0.444523
0	C	0.437675	0.312227	0.820261
0	C	0.723249	0.103334	0.128422
0	C	0.143207	0.429528	0.86175
0	C	0.611335	0.708054	0.234552
0	C	0.333694	0.923532	0.552432
0	C	0.889137	0.590068	0.367269
0	C	0.441988	0.319717	0.74284
0	C	0.709657	0.103717	0.0516821
0	H	0.216862	0.460085	0.845646
0	H	0.574298	0.745199	0.217578
0	H	0.291823	0.852309	0.537202
0	H	0.813801	0.558876	0.355014
0	H	0.478428	0.282303	0.72525
0	H	0.749287	0.175174	0.0356827
0	C	0.0967987	0.343409	0.823034
0	C	0.701301	0.751647	0.197038
0	C	0.296724	0.972582	0.51009
0	C	0.931371	0.676223	0.328838
0	C	0.349398	0.273438	0.709204
0	C	0.750592	0.057112	0.010673
0	H	0.0586072	0.35031	0.77953
0	H	0.695185	0.71336	0.150229
0	H	0.342667	0.0035155	0.466197
0	H	0.948449	0.665286	0.27676
0	H	0.354713	0.301985	0.65809
0	H	0.70337	0.0209931	0.968272
0	H	0.149888	0.330176	0.799076
0	H	0.712679	0.816366	0.17694
0	H	0.232106	0.924008	0.48588
0	H	0.878553	0.697751	0.320425
0	H	0.331261	0.203688	0.698865
0	H	0.812044	0.107354	0.983957
0	C	0.0358651	0.261092	0.859525
0	C	0.784789	0.767051	0.23335
0	C	0.277929	0.0390461	0.543356
0	C	0.0118262	0.751625	0.358587
0	C	0.272583	0.274369	0.745302
0	C	0.776954	0.997125	0.0454836
0	C	0.0518673	0.341682	0.963731
0	C	0.701048	0.709156	0.339966
0	C	0.334102	0.0174847	0.65196
0	C	0.994749	0.672828	0.465867
0	C	0.363286	0.331133	0.850213
0	C	0.714962	0.0149375	0.152769
0	H	0.993869	0.355265	0.95382
0	H	0.687293	0.639484	0.337642
0	H	0.406665	0.0686103	0.64605
0	H	0.0438525	0.646995	0.460301
0	H	0.386967	0.40308	0.852488
0	H	0.644091	0.960029	0.146423
0	C	0.221651	0.400177	0.956285
0	C	0.632327	0.809992	0.328559
0	C	0.221008	0.856434	0.644097
0	C	0.827102	0.6281	0.467644
0	C	0.419563	0.219608	0.838169
0	C	0.817588	0.178292	0.145193
0	H	0.211232	0.338525	0.933479
0	H	0.699817	0.861438	0.313922
0	H	0.171919	0.87172	0.619373
0	H	0.84123	0.691968	0.44734
0	H	0.350783	0.170224	0.82469
0	H	0.871061	0.165912	0.124808
0	H	0.228693	0.394208	0.0103832
0	H	0.625259	0.81882	0.382314
0	H	0.205798	0.851468	0.697823
0	H	0.825117	0.633202	0.522376
0	H	0.427518	0.211318	0.891959
0	H	0.829167	0.18839	0.199088
0	H	0.287812	0.452136	0.939076
0	H	0.582306	0.823193	0.303211
0	H	0.206838	0.791169	0.627547
0	H	0.757774	0.580229	0.452358
0	H	0.467081	0.202469	0.813064
0	H	0.828099	0.241111	0.12387
0	C	0.227312	0.748614	0.86526
0	C	0.286399	0.467234	0.233454
0	C	0.563579	0.816189	0.573755
0	C	0.817392	0.272318	0.372081
0	C	0.765907	0.556912	0.733523
0	C	0.472247	0.201842	0.0592402
0	H	0.272323	0.759131	0.908572
0	H	0.270285	0.491761	0.279103
0	H	0.536639	0.784355	0.622289
0	H	0.784189	0.261146	0.421926
0	H	0.782573	0.532204	0.779932
0	H	0.503495	0.240738	0.104137
0	H	0.209799	0.80183	0.865448
0	H	0.236886	0.398139	0.226811
0	H	0.633235	0.826937	0.568874
0	H	0.838693	0.222233	0.365509
0	H	0.816605	0.62545	0.727127
0	H	0.401914	0.18923	0.0561558
0	H	0.267681	0.757138	0.819994
0	H	0.277573	0.502768	0.19073
0	H	0.523632	0.769067	0.534617
0	H	0.767246	0.260944	0.332993
0	H	0.773702	0.519715	0.691885
0	H	0.507831	0.243748	0.0161127
0	C	0.0536162	0.317537	0.0352096
0	C	0.727936	0.746102	0.40889
0	C	0.30006	0.0167827	0.720982
0	C	0.99763	0.707232	0.534805
0	C	0.330282	0.288711	0.916761
0	C	0.748752	0.0188523	0.222541
0	C	0.0260571	0.344708	0.0907734
0	C	0.683451	0.714017	0.46838
0	C	0.342303	0.0219151	0.780952
0	C	0.00858284	0.674441	0.594595
0	C	0.368493	0.317066	0.978627
0	C	0.704396	0.0109747	0.281871
0	H	0.994619	0.385186	0.101394
0	H	0.62351	0.657861	0.484829
0	H	0.407986	0.0320969	0.797343
0	H	0.0198924	0.621206	0.610299
0	H	0.426066	0.372854	0.998885
0	H	0.63815	0.997099	0.296997
0	C	0.0857838	0.258279	0.0585072
0	C	0.809102	0.826624	0.424591
0	C	0.211626	0.00709998	0.736767
0	C	0.98696	0.783	0.550715
0	C	0.249307	0.205789	0.926816
0	C	0.838494	0.0329887	0.239696
0	H	0.110027	0.224831	0.0257626
0	H	0.858487	0.866447	0.387922
0	H	0.163279	0.0032766	0.699958
0	H	0.978523	0.823539	0.513884
0	H	0.203943	0.168131	0.887333
0	H	0.888616	0.0397346	0.203283
0	C	0.0770786	0.254064	0.126457
0	C	0.80862	0.838596	0.492099
0	C	0.205154	0.00570911	0.804933
0	C	0.991002	0.790823	0.618821
0	C	0.243627	0.188502	0.99375
0	C	0.84324	0.0334777	0.307929
0	H	0.0897646	0.220626	0.16617
0	H	0.851387	0.885883	0.527745
0	H	0.155745	0.99991	0.840937
0	H	0.986782	0.833932	0.654864
0	H	0.198972	0.137433	0.0261422
0	H	0.892134	0.0399977	0.344561
0	C	0.815484	0.483877	0.934689
0	C	0.554493	0.323669	0.288148
0	C	0.719025	0.243652	0.571198
0	C	0.223725	0.591439	0.371592
0	C	0.490172	0.702476	0.785676
0	C	0.325241	0.781774	0.0883159
0	C	0.822856	0.354963	0.0401216
0	C	0.608355	0.358674	0.350231
0	C	0.626621	0.224723	0.713776
0	C	0.244764	0.592792	0.527351
0	C	0.447186	0.677822	0.852331
0	C	0.402616	0.778501	0.221799
0	H	0.942132	0.469851	0.151264
0	H	0.599644	0.502657	0.443698
0	H	0.515665	0.0650509	0.802077
0	H	0.0494421	0.539263	0.608216
0	H	0.453498	0.53067	0.944848
0	H	0.471007	0.951331	0.280301
0	H	0.841368	0.315829	0.0721827
0	H	0.66541	0.425858	0.341612
0	H	0.577926	0.218954	0.751358
0	H	0.179005	0.577634	0.548879
0	H	0.385215	0.613759	0.850891
0	H	0.438235	0.771271	0.264429
0	H	0.830244	0.413254	0.0651267
0	H	0.639822	0.244274	0.396096
0	H	0.693785	0.277102	0.726945
0	H	0.290508	0.594008	0.566405
0	H	0.430429	0.727546	0.873504
0	H	0.358012	0.805254	0.235119
0	C	0.95216	0.712865	0.899474
0	C	0.335524	0.247412	0.254718
0	C	0.8034	0.0745334	0.589525
0	C	0.0975464	0.321864	0.383573
0	C	0.719677	0.778004	0.75877
0	C	0.235917	0.943034	0.0787663
0	H	0.997862	0.777101	0.920707
0	H	0.264126	0.225281	0.266107
0	H	0.823904	0.0274326	0.608171
0	H	0.0548085	0.255809	0.403582
0	H	0.790936	0.7987	0.770149
0	H	0.216948	0.990457	0.0990653
0	H	0.904656	0.673929	0.939531
0	H	0.367482	0.239486	0.3004
0	H	0.807729	0.117442	0.631539
0	H	0.143646	0.359782	0.42447
0	H	0.688661	0.785277	0.805166
0	H	0.228183	0.896667	0.11887
0	H	0.910371	0.722462	0.861505
0	H	0.336364	0.200645	0.218064
0	H	0.854648	0.116886	0.553124
0	H	0.138959	0.315421	0.34376
0	H	0.719231	0.825652	0.722984
0	H	0.185567	0.905234	0.040276
0	C	0.0515184	0.70356	0.80371
0	C	0.343846	0.356602	0.163268
0	C	0.692499	0.969916	0.4987
0	C	0.982596	0.321246	0.295998
0	C	0.707399	0.668524	0.665448
0	C	0.348965	0.0428946	0.987351
0	H	0.00672497	0.697725	0.761555
0	H	0.351411	0.322569	0.119121
0	H	0.731177	0.00303105	0.453641
0	H	0.0198912	0.323548	0.250004
0	H	0.699499	0.702833	0.62182
0	H	0.312942	0.00601379	0.942533
0	H	0.103607	0.772319	0.805838
0	H	0.271658	0.338041	0.165333
0	H	0.706419	0.915153	0.508014
0	H	0.932672	0.251743	0.302456
0	H	0.77934	0.685494	0.666657
0	H	0.332428	0.0964298	0.992417
0	C	0.0131392	0.473429	0.840307
0	C	0.57436	0.542031	0.21057
0	C	0.509756	0.0359365	0.530122
0	C	0.0162757	0.545897	0.338472
0	C	0.478182	0.485812	0.719307
0	C	0.535062	0.985687	0.0283449
0	H	0.985385	0.462155	0.893408
0	H	0.578934	0.523324	0.26372
0	H	0.530306	0.0662463	0.581606
0	H	0.0411065	0.549335	0.391385
0	H	0.478125	0.506438	0.772603
0	H	0.513881	0.95864	0.0803519
0	C	0.887808	0.323947	0.833366
0	C	0.731235	0.572006	0.216259
0	C	0.482093	0.161354	0.519909
0	C	0.158742	0.673095	0.30331
0	C	0.325832	0.473262	0.721586
0	C	0.568224	0.863657	0.0266597
0	C	0.834352	0.259502	0.781639
0	C	0.810829	0.597155	0.172805
0	C	0.458068	0.207676	0.468333
0	C	0.199199	0.769007	0.290578
0	C	0.242488	0.433867	0.680378
0	C	0.594767	0.815278	0.978396
0	H	0.796346	0.192601	0.801998
0	H	0.861728	0.583172	0.197277
0	H	0.49303	0.279264	0.477179
0	H	0.212511	0.806826	0.337534
0	H	0.184437	0.432225	0.707574
0	H	0.565987	0.745397	0.992324
0	H	0.87485	0.258051	0.739039
0	H	0.845692	0.667802	0.159935
0	H	0.384589	0.188048	0.470641
0	H	0.154291	0.785426	0.260112
0	H	0.222624	0.365889	0.665172
0	H	0.669133	0.842008	0.976738
0	H	0.781947	0.275177	0.76009
0	H	0.79271	0.561271	0.124618
0	H	0.470593	0.194933	0.416728
0	H	0.265127	0.794472	0.262952
0	H	0.251578	0.470696	0.633359
0	H	0.572234	0.818258	0.927119
0	C	0.885916	0.456365	0.720589
0	C	0.611247	0.460644	0.083357
0	C	0.590829	0.114814	0.391773
0	C	0.119382	0.572056	0.202914
0	C	0.441508	0.567706	0.588979
0	C	0.44853	0.887889	0.893693
0	C	0.88553	0.443807	0.647188
0	C	0.636052	0.495757	0.0151221
0	C	0.563479	0.105334	0.322356
0	C	0.134056	0.579014	0.131783
0	C	0.426412	0.547265	0.516293
0	C	0.469994	0.90312	0.821369
0	H	0.843385	0.373883	0.633724
0	H	0.69618	0.561407	0.0153712
0	H	0.526594	0.141151	0.307325
0	H	0.200727	0.638473	0.114309
0	H	0.368176	0.481402	0.508769
0	H	0.510648	0.872775	0.803943
0	H	0.954486	0.465872	0.62646
0	H	0.582544	0.502899	0.988811
0	H	0.510816	0.0300066	0.309184
0	H	0.0857236	0.5978	0.105017
0	H	0.484885	0.546685	0.491973
0	H	0.510762	0.976698	0.81051
0	H	0.854714	0.478461	0.620536
0	H	0.658899	0.457242	0.9829
0	H	0.619104	0.124344	0.285612
0	H	0.128227	0.520535	0.106412
0	H	0.410237	0.593904	0.490094
0	H	0.40856	0.876848	0.790436
0	C	0.994542	0.794744	0.097585
0	C	0.307757	0.294599	0.510713
0	C	0.789508	0.0372366	0.826317
0	C	0.0366477	0.267775	0.627475
0	C	0.766342	0.758785	0.00171964
0	C	0.222386	0.990415	0.304057
0	H	0.042492	0.818592	0.139218
0	H	0.259137	0.299423	0.544633
0	H	0.78532	0.986911	0.861146
0	H	0.98396	0.212963	0.655525
0	H	0.822409	0.763515	0.0324669
0	H	0.225708	0.0421514	0.33681
0	H	0.936315	0.731543	0.110032
0	H	0.377127	0.330304	0.529606
0	H	0.750781	0.0690039	0.844189
0	H	0.0528128	0.330555	0.650511
0	H	0.700517	0.71708	0.0246714
0	H	0.255766	0.956069	0.32664
0	H	0.973178	0.842723	0.0826839
0	H	0.288106	0.225762	0.500205
0	H	0.860471	0.0850454	0.815937
0	H	0.0968874	0.259489	0.621541
0	H	0.774976	0.824141	0.990188
0	H	0.152249	0.944269	0.290109
0	O	0.251079	0.626951	0.819679
0	O	0.410446	0.61415	0.188208
0	O	0.418633	0.804802	0.517514
0	O	0.783092	0.391036	0.324715
0	O	0.637658	0.409898	0.687671
0	O	0.619842	0.215403	0.012209
0	O	0.142007	0.51056	0.767043
0	O	0.535846	0.628793	0.138181
0	O	0.418705	0.915474	0.461157
0	O	0.886144	0.507809	0.2698
0	O	0.510124	0.397775	0.643542
0	O	0.627016	0.106618	0.95815
0	O	0.146232	0.645777	0.746733
0	O	0.39924	0.506204	0.112468
0	O	0.538947	0.886965	0.443584
0	O	0.879113	0.374151	0.246503
0	O	0.645627	0.518443	0.613632
0	O	0.504604	0.129743	0.935682
0	O	0.900991	0.51574	0.907098
0	O	0.541787	0.389144	0.260854
0	O	0.67457	0.153641	0.574318
0	O	0.146075	0.514991	0.384589
0	O	0.516112	0.641279	0.768064
0	O	0.37094	0.86863	0.0763962
0	O	0.969973	0.525171	0.738578
0	O	0.532832	0.464443	0.101837
0	O	0.583526	0.0456085	0.421794
0	O	0.0511983	0.499574	0.226766
0	O	0.516324	0.561404	0.608079
0	O	0.455144	0.963334	0.919701
0	O	0.961899	0.394793	0.802014
0	O	0.66186	0.573046	0.178997
0	O	0.4868	0.0910552	0.488926
0	O	0.0663371	0.632778	0.310919
0	O	0.387482	0.452588	0.692458
0	O	0.564117	0.931078	0.992458
0	O	0.0283797	0.260518	0.92813
0	O	0.78464	0.755643	0.301592
0	O	0.284133	0.0503123	0.611172
0	O	0.0346666	0.751276	0.424653
0	O	0.280241	0.300343	0.810814
0	O	0.770513	0.987313	0.11396
0	O	0.992323	0.190299	0.833331
0	O	0.858386	0.790453	0.207846
0	O	0.254721	0.0861563	0.513533
0	O	0.0625094	0.818741	0.329648
0	O	0.198909	0.255321	0.72118
0	O	0.806752	0.953922	0.0180432
0	O	0.0405694	0.307449	0.148385
0	O	0.731248	0.770109	0.520928
0	O	0.285001	0.0144202	0.833875
0	O	0.00424178	0.724314	0.647629
0	O	0.316753	0.256149	0.0275057
0	O	0.761301	0.0204932	0.33596
0	O	0.760191	0.502355	0.909935
0	O	0.525385	0.251514	0.263521
0	O	0.772743	0.279558	0.525252
0	O	0.29789	0.602927	0.384026
0	O	0.503228	0.762994	0.74899
0	O	0.26	0.729605	0.0547868
0	O	0.879617	0.322605	0.893258
0	O	0.720522	0.554009	0.275423
0	O	0.492942	0.172979	0.579181
0	O	0.209778	0.660384	0.353267
0	O	0.340216	0.514914	0.773273
0	O	0.556568	0.854516	0.0864698
0	O	0.826305	0.418406	0.760598
0	O	0.645113	0.430032	0.120957
0	O	0.626832	0.189757	0.424912
0	O	0.176433	0.635597	0.240749
0	O	0.398126	0.588402	0.626449
0	O	0.424873	0.820712	0.924944
0	O	0.025095	0.65824	0.0738946
0	O	0.414853	0.326898	0.401533
0	O	0.659711	0.0499459	0.751347
0	O	0.0542902	0.40687	0.552439
0	O	0.629619	0.67073	0.913728
0	O	0.36893	0.985353	0.250744
0	O	0.0414038	0.788056	0.038642
0	O	0.298264	0.336009	0.450033
0	O	0.753221	0.990654	0.763875
0	O	0.997383	0.260014	0.561395
0	O	0.776891	0.720563	0.940026
0	O	0.26634	0.0341071	0.242297
0	H	0.752675	0.317234	0.0237664
0	H	0.639204	0.318761	0.367616
0	H	0.608097	0.240877	0.665486
0	H	0.275503	0.656476	0.503554
0	H	0.28751	0.591593	0.819386
0	H	0.362666	0.715134	0.19789
0	H	0.863754	0.375255	0.994635
0	H	0.565862	0.364365	0.390266
0	H	0.62941	0.163927	0.707916
0	H	0.234154	0.541514	0.49208
0	H	0.493055	0.669639	0.888452
0	H	0.449881	0.82072	0.183674
0	H	0.959025	0.440669	0.134311
0	H	0.651417	0.526069	0.446341
0	H	0.561443	0.0739999	0.817569
0	H	0.0910317	0.546312	0.587348
0	H	0.401776	0.507182	0.94201
0	H	0.46236	0.943097	0.318566
