#******************************************
#
# CIF file created by Zeo++
# Zeo++ is an open source package to
# analyze microporous materials
#
#*******************************************

_cell_length_a		13.0761(0)
_cell_length_b		9.82132(0)
_cell_length_c		18.4644(0)
_cell_angle_alpha		90(0)
_cell_angle_beta		102.056(0)
_cell_angle_gamma		90(0)

_symmetry_space_group_name_H-M		'P1'
_symmetry_Int_Tables_number		1
_symmetry_cell_setting		Monoclinic

loop_
_symmetry_equiv_pos_as_xyz
'+x,+y,+z'

loop_
_atom_site_label
_atom_site_type_symbol
_atom_site_fract_x
_atom_site_fract_y
_atom_site_fract_z
0	N	0.21501	0.0580611	0.326118
0	N	0.284807	0.4955	0.252939
0	N	0.788478	0.04998	0.7675
0	N	0.714177	0.475031	0.838222
0	C	0.400198	0.0283195	0.4171
0	C	0.176844	0.507797	0.193032
0	C	0.680811	0.0304568	0.707532
0	C	0.898651	0.498876	0.925839
0	C	0.434853	0.970588	0.348619
0	C	0.0997117	0.453104	0.244562
0	C	0.602398	0.0861855	0.757806
0	C	0.934682	0.555646	0.85764
0	C	0.352425	0.956131	0.279139
0	C	0.165111	0.439867	0.321296
0	C	0.666739	0.100382	0.834897
0	C	0.85122	0.573694	0.78898
0	C	0.24737	0.974547	0.271132
0	C	0.271747	0.459806	0.32211
0	C	0.773811	0.0819195	0.83678
0	C	0.746124	0.55743	0.782577
0	O	0.407891	0.14857	0.43033
0	O	0.159098	0.630387	0.17281
0	O	0.665996	0.906471	0.689663
0	O	0.90396	0.378529	0.938852
0	N	0.133107	0.0507962	0.350533
0	N	0.381341	0.525564	0.235987
0	N	0.885517	0.0176525	0.752261
0	N	0.631155	0.480511	0.861461
0	C	0.0496247	0.934155	0.341776
0	C	0.45811	0.423512	0.238628
0	C	0.959535	0.119663	0.74731
0	C	0.545504	0.594107	0.850605
0	O	0.0866143	0.824053	0.337648
0	O	0.436949	0.302365	0.242009
0	O	0.937869	0.241139	0.747384
0	O	0.581139	0.7056	0.847917
0	C	0.945374	0.979521	0.346515
0	C	0.564879	0.471404	0.232824
0	C	0.0642257	0.0695498	0.737549
0	C	0.440257	0.54762	0.851508
0	C	0.912962	0.11654	0.340554
0	C	0.595218	0.608485	0.235205
0	C	0.0936207	0.931993	0.741631
0	C	0.408199	0.410465	0.846933
0	C	0.811018	0.149282	0.345366
0	C	0.698544	0.642986	0.23401
0	C	0.1943	0.894622	0.734845
0	C	0.304166	0.37866	0.846027
0	C	0.739775	0.0471449	0.353658
0	C	0.772153	0.541213	0.230654
0	C	0.266595	0.994003	0.724774
0	C	0.231122	0.481643	0.848717
0	C	0.771102	0.910585	0.358304
0	C	0.741916	0.404532	0.226872
0	C	0.237525	0.131154	0.720042
0	C	0.262517	0.618103	0.853439
0	C	0.873394	0.876412	0.35522
0	C	0.638817	0.369763	0.228041
0	C	0.136788	0.168664	0.726268
0	C	0.366338	0.651481	0.854819
0	C	0.366986	0.927683	0.468943
0	C	0.184481	0.405722	0.131004
0	C	0.687092	0.128629	0.643452
0	C	0.867273	0.601272	0.977426
0	C	0.402076	0.953063	0.544769
0	C	0.139514	0.446004	0.0585093
0	C	0.645277	0.0810897	0.571765
0	C	0.9056	0.578097	0.0530589
0	C	0.381319	0.859437	0.596713
0	C	0.14084	0.359457	0.999277
0	C	0.646072	0.162812	0.510551
0	C	0.890421	0.675533	0.104829
0	C	0.322546	0.743018	0.57181
0	C	0.188774	0.231315	0.0132523
0	C	0.6904	0.293634	0.521825
0	C	0.831913	0.791881	0.0796764
0	C	0.284913	0.717523	0.496073
0	C	0.23517	0.190062	0.0854471
0	C	0.732906	0.342464	0.593328
0	C	0.788918	0.813896	0.00431816
0	C	0.308265	0.810414	0.444707
0	C	0.232179	0.277825	0.144257
0	C	0.730696	0.25923	0.654072
0	C	0.808373	0.718329	0.953031
0	N	0.299809	0.645578	0.627274
0	N	0.190916	0.140968	0.950812
0	N	0.694052	0.378447	0.457502
0	N	0.81595	0.894597	0.134453
0	O	0.347545	0.658643	0.691474
0	O	0.145489	0.176889	0.888876
0	O	0.659055	0.332382	0.395563
0	O	0.879602	0.8991	0.193397
0	O	0.233952	0.557828	0.60728
0	O	0.239352	0.0333056	0.962365
0	O	0.733506	0.492197	0.467573
0	O	0.739996	0.969395	0.119174
0	C	0.490659	0.835344	0.369121
0	C	0.0463264	0.320588	0.219596
0	C	0.548749	0.217606	0.731092
0	C	0.993825	0.688625	0.878808
0	O	0.471288	0.725545	0.33931
0	O	0.0637566	0.20579	0.244996
0	O	0.561766	0.331735	0.758285
0	O	0.97462	0.799367	0.85008
0	O	0.567932	0.852474	0.430002
0	O	0.964768	0.339723	0.160478
0	O	0.473867	0.200258	0.667694
0	O	0.0734512	0.668021	0.937728
0	C	0.622387	0.726371	0.463421
0	C	0.908025	0.216326	0.128444
0	C	0.421835	0.325669	0.633843
0	C	0.132695	0.791781	0.970531
0	C	0.706119	0.776443	0.526158
0	C	0.812308	0.267769	0.0753902
0	C	0.335418	0.277218	0.571989
0	C	0.226003	0.738387	0.0246973
0	C	0.395523	0.927835	0.211286
0	C	0.121577	0.423172	0.384684
0	C	0.621342	0.110714	0.89778
0	C	0.892693	0.603986	0.720484
0	O	0.348368	0.905965	0.14881
0	O	0.164643	0.414746	0.450275
0	O	0.6628	0.117006	0.963781
0	O	0.843962	0.623575	0.658176
0	O	0.502239	0.938932	0.228907
0	O	0.0124554	0.410837	0.365707
0	O	0.512152	0.117436	0.877676
0	O	0.999726	0.597871	0.737098
0	C	0.557599	0.957711	0.167645
0	C	0.953685	0.426716	0.42404
0	C	0.452653	0.0833015	0.933602
0	C	0.053957	0.589226	0.674641
0	C	0.524931	0.0899439	0.128125
0	C	0.962529	0.570859	0.453859
0	C	0.475612	0.939035	0.961544
0	C	0.0253901	0.458379	0.632655
0	C	0.166393	0.929914	0.207426
0	C	0.35949	0.445439	0.386471
0	C	0.860588	0.0920357	0.902141
0	C	0.664495	0.604305	0.719765
0	H	0.494786	0.0466313	0.335012
0	H	0.039329	0.5345	0.242644
0	H	0.542009	0.00466516	0.756158
0	H	0.992448	0.477719	0.843019
0	H	0.118776	0.137622	0.381381
0	H	0.403971	0.625911	0.248374
0	H	0.909617	0.91906	0.767886
0	H	0.617459	0.393956	0.892665
0	H	0.965838	0.198915	0.331125
0	H	0.539219	0.689726	0.238994
0	H	0.0389745	0.852598	0.751024
0	H	0.463122	0.32713	0.843081
0	H	0.785793	0.256238	0.342519
0	H	0.722047	0.749485	0.236673
0	H	0.217271	0.787656	0.738295
0	H	0.278495	0.272216	0.842484
0	H	0.659662	0.0752291	0.356624
0	H	0.853504	0.567691	0.23136
0	H	0.346003	0.96466	0.720989
0	H	0.1493	0.454982	0.847064
0	H	0.715442	0.830659	0.364817
0	H	0.799302	0.325409	0.223194
0	H	0.293881	0.208702	0.711912
0	H	0.205594	0.698431	0.856364
0	H	0.898772	0.769016	0.359949
0	H	0.614249	0.262484	0.225694
0	H	0.113107	0.276316	0.722848
0	H	0.391681	0.7586	0.85866
0	H	0.446582	0.0462732	0.564281
0	H	0.10514	0.548392	0.0491747
0	H	0.61453	0.976264	0.565276
0	H	0.948988	0.483984	0.0726733
0	H	0.411009	0.877249	0.656286
0	H	0.105301	0.389729	0.942669
0	H	0.613066	0.126862	0.454525
0	H	0.925089	0.660947	0.163865
0	H	0.238689	0.624728	0.477943
0	H	0.273266	0.0901394	0.0947196
0	H	0.767894	0.444489	0.600677
0	H	0.742127	0.906227	0.98651
0	H	0.280812	0.788721	0.385625
0	H	0.269867	0.247672	0.200809
0	H	0.766302	0.294601	0.710065
0	H	0.778155	0.737809	0.894047
0	H	0.6527	0.674538	0.418897
0	H	0.889713	0.15602	0.17475
0	H	0.393432	0.381934	0.677652
0	H	0.153002	0.849576	0.923966
0	H	0.562287	0.663338	0.481016
0	H	0.962385	0.159484	0.101337
0	H	0.482509	0.385302	0.614597
0	H	0.0778621	0.849974	0.996484
0	H	0.757945	0.691686	0.550215
0	H	0.750106	0.189176	0.0654984
0	H	0.277079	0.358483	0.553268
0	H	0.28546	0.819205	0.0396216
0	H	0.67529	0.820378	0.572841
0	H	0.82842	0.293349	0.0207843
0	H	0.364461	0.244817	0.52285
0	H	0.20684	0.704653	0.0779739
0	H	0.755953	0.854776	0.50899
0	H	0.779221	0.358749	0.0961738
0	H	0.292324	0.191193	0.58901
0	H	0.26333	0.651679	0.00329864
0	H	0.541967	0.867631	0.131389
0	H	0.982021	0.350399	0.467439
0	H	0.47067	0.159745	0.978212
0	H	0.033729	0.681206	0.640394
0	H	0.639351	0.958933	0.199731
0	H	0.873527	0.402407	0.393213
0	H	0.3717	0.0948872	0.90122
0	H	0.136263	0.591795	0.70561
0	H	0.580913	0.119696	0.0937401
0	H	0.901985	0.590908	0.485977
0	H	0.41717	0.904822	0.99267
0	H	0.0824195	0.434029	0.598167
0	H	0.52112	0.173781	0.167611
0	H	0.95223	0.645839	0.408505
0	H	0.474292	0.867855	0.915307
0	H	0.0238904	0.371484	0.670747
0	H	0.447138	0.0832855	0.0916267
0	H	0.0394615	0.58894	0.490031
0	H	0.553312	0.931985	0.998364
0	H	0.947589	0.463044	0.596033
0	H	0.151439	0.816478	0.210642
0	H	0.404866	0.351424	0.381291
0	H	0.913637	0.177751	0.896005
0	H	0.649221	0.716995	0.724905
0	H	0.191294	0.93724	0.153608
0	H	0.331925	0.433915	0.438855
0	H	0.8323	0.113765	0.953452
0	H	0.689092	0.600439	0.665741
0	H	0.0912815	0.983852	0.200312
0	H	0.414914	0.531149	0.39221
0	H	0.908727	0.999184	0.910806
0	H	0.590062	0.548874	0.712116
