#******************************************
#
# CIF file created by Zeo++
# Zeo++ is an open source package to
# analyze microporous materials
#
#*******************************************

_cell_length_a		17.9842(0)
_cell_length_b		17.9745(0)
_cell_length_c		18.3411(0)
_cell_angle_alpha		90(0)
_cell_angle_beta		90(0)
_cell_angle_gamma		90(0)

_symmetry_space_group_name_H-M		'P1'
_symmetry_Int_Tables_number		1
_symmetry_cell_setting		Monoclinic

loop_
_symmetry_equiv_pos_as_xyz
'+x,+y,+z'

loop_
_atom_site_label
_atom_site_type_symbol
_atom_site_fract_x
_atom_site_fract_y
_atom_site_fract_z
0	Br	0.294044	0.0706104	0.13216
0	Br	0.769583	0.993648	0.132068
0	Br	0.768442	0.071071	0.910607
0	Br	0.295127	0.993034	0.910736
0	Br	0.139901	0.295464	0.0595942
0	Br	0.140141	0.768754	0.983503
0	Br	0.923658	0.768599	0.0594865
0	Br	0.923418	0.295521	0.983302
0	Br	0.0670996	0.143162	0.283914
0	Br	0.996347	0.143248	0.759291
0	Br	0.0673114	0.920902	0.759271
0	Br	0.996468	0.921033	0.283695
0	Br	0.0707812	0.295568	0.910779
0	Br	0.992884	0.76865	0.910718
0	Br	0.0710035	0.768135	0.132268
0	Br	0.992503	0.296025	0.132156
0	Br	0.29471	0.140342	0.983624
0	Br	0.768743	0.140667	0.0590996
0	Br	0.768779	0.923774	0.983579
0	Br	0.294952	0.923496	0.0593382
0	Br	0.143068	0.0676114	0.759264
0	Br	0.143168	0.996502	0.283441
0	Br	0.920364	0.0677416	0.28345
0	Br	0.920502	0.996571	0.759343
0	O	0.545299	0.244634	0.117877
0	O	0.518438	0.820102	0.116198
0	O	0.518038	0.24564	0.926679
0	O	0.545512	0.818306	0.926401
0	O	0.126758	0.549197	0.231002
0	O	0.126143	0.515082	0.812501
0	O	0.935421	0.514842	0.230902
0	O	0.936184	0.5492	0.811713
0	O	0.240598	0.13354	0.53219
0	O	0.823823	0.132484	0.510881
0	O	0.240352	0.929953	0.510761
0	O	0.823445	0.928998	0.531866
0	O	0.245245	0.546056	0.925172
0	O	0.818939	0.518216	0.925676
0	O	0.245485	0.51789	0.116987
0	O	0.817821	0.546147	0.116038
0	O	0.548731	0.127214	0.812656
0	O	0.514779	0.125748	0.230026
0	O	0.51479	0.936478	0.812608
0	O	0.548961	0.936218	0.230842
0	O	0.132397	0.24077	0.510862
0	O	0.132436	0.823988	0.531952
0	O	0.929358	0.240767	0.532047
0	O	0.92992	0.823888	0.511
0	O	0.535809	0.363583	0.108526
0	O	0.527405	0.700942	0.10924
0	O	0.527399	0.364944	0.930511
0	O	0.536103	0.699057	0.931031
0	O	0.124102	0.540999	0.347999
0	O	0.123501	0.522966	0.695479
0	O	0.941012	0.523274	0.347782
0	O	0.940271	0.540906	0.694768
0	O	0.359483	0.124366	0.523563
0	O	0.704787	0.124556	0.518841
0	O	0.359176	0.940179	0.519183
0	O	0.704708	0.940384	0.523646
0	O	0.364244	0.53646	0.933086
0	O	0.699912	0.527466	0.933711
0	O	0.364628	0.527339	0.111067
0	O	0.698603	0.536781	0.111847
0	O	0.540819	0.124084	0.695663
0	O	0.522634	0.124462	0.347065
0	O	0.522782	0.94044	0.695636
0	O	0.54059	0.940557	0.347764
0	O	0.124078	0.359799	0.519364
0	O	0.124062	0.704927	0.523947
0	O	0.940261	0.359586	0.523597
0	O	0.940231	0.704973	0.519129
0	N	0.508307	0.301866	0.11637
0	N	0.555174	0.762684	0.115944
0	N	0.55495	0.302964	0.9256
0	N	0.508567	0.761018	0.925699
0	N	0.128134	0.512749	0.287463
0	N	0.127644	0.551366	0.755963
0	N	0.935468	0.551407	0.287288
0	N	0.935462	0.512708	0.755291
0	N	0.297859	0.131349	0.496148
0	N	0.766308	0.130988	0.546585
0	N	0.297659	0.932673	0.5467
0	N	0.766111	0.932405	0.496018
0	N	0.302444	0.509003	0.926026
0	N	0.761617	0.555085	0.926492
0	N	0.30277	0.554865	0.117095
0	N	0.760526	0.509219	0.117008
0	N	0.51243	0.128374	0.75612
0	N	0.551035	0.127911	0.286542
0	N	0.551126	0.9357	0.7561
0	N	0.512438	0.935657	0.287229
0	N	0.130706	0.298136	0.546832
0	N	0.130732	0.766468	0.496227
0	N	0.932401	0.298067	0.496087
0	N	0.932661	0.766446	0.546782
0	H	0.159727	0.140009	0.0758793
0	H	0.903854	0.924094	0.0756419
0	H	0.903064	0.140013	0.967112
0	H	0.160464	0.924238	0.967136
0	H	0.0817215	0.161402	0.130481
0	H	0.0823513	0.903125	0.912614
0	H	0.981849	0.902715	0.130271
0	H	0.981189	0.161096	0.912605
0	H	0.138109	0.0840714	0.15196
0	H	0.924518	0.0839679	0.891064
0	H	0.139054	0.980225	0.891035
0	H	0.925464	0.98005	0.15173
0	H	0.13938	0.160861	0.967116
0	H	0.924121	0.903312	0.967178
0	H	0.139545	0.902806	0.0757171
0	H	0.924133	0.161315	0.0756974
0	H	0.160486	0.0826443	0.912676
0	H	0.903234	0.0830249	0.130072
0	H	0.903035	0.981512	0.912728
0	H	0.160403	0.981105	0.130086
0	H	0.0835408	0.139463	0.89093
0	H	0.0836028	0.924138	0.151866
0	H	0.979999	0.140028	0.151914
0	H	0.979988	0.924718	0.891008
0	C	0.272241	0.164099	0.185882
0	C	0.79132	0.900093	0.185681
0	C	0.790786	0.164445	0.856872
0	C	0.272782	0.899674	0.856995
0	C	0.193103	0.274978	0.152605
0	C	0.193331	0.789085	0.890471
0	C	0.870376	0.789155	0.15243
0	C	0.870192	0.275098	0.890307
0	C	0.160899	0.197112	0.26257
0	C	0.902435	0.197119	0.78044
0	C	0.161164	0.866944	0.780508
0	C	0.902708	0.867036	0.26233
0	C	0.164098	0.273129	0.857061
0	C	0.899515	0.791032	0.85707
0	C	0.164325	0.790718	0.185959
0	C	0.89918	0.273438	0.185816
0	C	0.274637	0.19364	0.890596
0	C	0.788765	0.193835	0.152207
0	C	0.788909	0.870435	0.890589
0	C	0.274818	0.870254	0.152379
0	C	0.196933	0.161533	0.780544
0	C	0.196974	0.902506	0.262295
0	C	0.86648	0.161685	0.262224
0	C	0.866635	0.90266	0.780603
0	C	0.318594	0.226493	0.156089
0	C	0.74495	0.837756	0.155813
0	C	0.744575	0.226982	0.886571
0	C	0.318973	0.837118	0.886699
0	C	0.163253	0.321973	0.213604
0	C	0.163292	0.74213	0.829535
0	C	0.900212	0.742157	0.21343
0	C	0.900145	0.322019	0.82929
0	C	0.223088	0.167326	0.308654
0	C	0.840365	0.167281	0.73426
0	C	0.223293	0.896676	0.73433
0	C	0.840521	0.896796	0.308409
0	C	0.226608	0.319339	0.886769
0	C	0.83706	0.7448	0.886841
0	C	0.226864	0.744527	0.156286
0	C	0.836624	0.319588	0.156115
0	C	0.321659	0.163656	0.829675
0	C	0.741768	0.163668	0.213061
0	C	0.741887	0.9004	0.829668
0	C	0.321775	0.900298	0.213331
0	C	0.16715	0.223674	0.734381
0	C	0.167174	0.840437	0.308532
0	C	0.896181	0.223818	0.308447
0	C	0.896415	0.840538	0.734434
0	C	0.395298	0.228767	0.147447
0	C	0.668261	0.835592	0.147042
0	C	0.667857	0.229458	0.895054
0	C	0.39569	0.834593	0.895194
0	C	0.155311	0.398824	0.215539
0	C	0.155117	0.665302	0.827679
0	C	0.908074	0.665299	0.215394
0	C	0.908198	0.398858	0.827282
0	C	0.225014	0.159776	0.384048
0	C	0.838708	0.159513	0.658885
0	C	0.225058	0.904276	0.658942
0	C	0.838665	0.904253	0.383799
0	C	0.229097	0.396091	0.895213
0	C	0.834692	0.668061	0.895412
0	C	0.229376	0.667774	0.147857
0	C	0.834057	0.39634	0.14762
0	C	0.398458	0.155575	0.827842
0	C	0.664988	0.155369	0.214845
0	C	0.665078	0.908423	0.827819
0	C	0.398579	0.908395	0.215277
0	C	0.159442	0.225434	0.659
0	C	0.159367	0.838844	0.383901
0	C	0.903837	0.225512	0.383831
0	C	0.904085	0.83886	0.659058
0	H	0.430767	0.180194	0.158813
0	H	0.632842	0.884232	0.15826
0	H	0.632302	0.180961	0.883665
0	H	0.431277	0.883078	0.883838
0	H	0.165611	0.433836	0.1673
0	H	0.165268	0.630299	0.875951
0	H	0.897644	0.63026	0.167204
0	H	0.897995	0.433937	0.875495
0	H	0.176162	0.171455	0.418407
0	H	0.88772	0.170971	0.624671
0	H	0.176112	0.892682	0.624678
0	H	0.887556	0.89256	0.418115
0	H	0.180656	0.431677	0.883719
0	H	0.883184	0.632523	0.884003
0	H	0.180948	0.632176	0.15936
0	H	0.882497	0.43196	0.158989
0	H	0.433422	0.165723	0.876137
0	H	0.630048	0.16537	0.166512
0	H	0.630104	0.898208	0.87609
0	H	0.433605	0.898261	0.167024
0	H	0.171063	0.176487	0.624721
0	H	0.170842	0.887899	0.418089
0	H	0.892231	0.176519	0.418067
0	H	0.892476	0.887848	0.624821
0	C	0.42709	0.296342	0.123986
0	C	0.636394	0.768025	0.123678
0	C	0.6362	0.297129	0.918374
0	C	0.427316	0.766877	0.918457
0	C	0.134484	0.431366	0.282438
0	C	0.134248	0.632743	0.760804
0	C	0.929028	0.632775	0.282265
0	C	0.929001	0.431332	0.760337
0	C	0.292617	0.137327	0.416145
0	C	0.77118	0.137157	0.626603
0	C	0.292609	0.926668	0.62671
0	C	0.771078	0.926597	0.415993
0	C	0.296719	0.427748	0.918624
0	C	0.767116	0.636335	0.918843
0	C	0.296991	0.636134	0.124428
0	C	0.766374	0.427936	0.124328
0	C	0.431077	0.134829	0.760956
0	C	0.63238	0.134559	0.281709
0	C	0.632472	0.929215	0.760944
0	C	0.431097	0.929183	0.282198
0	C	0.13688	0.292986	0.626827
0	C	0.136919	0.771324	0.416215
0	C	0.92634	0.29305	0.416089
0	C	0.926576	0.771331	0.626795
0	C	0.383782	0.359314	0.108207
0	C	0.679606	0.704936	0.108103
0	C	0.679642	0.359947	0.934377
0	C	0.383848	0.704072	0.934385
0	C	0.120586	0.388802	0.345225
0	C	0.120562	0.67525	0.697939
0	C	0.943039	0.675362	0.34502
0	C	0.942773	0.388713	0.697563
0	C	0.355804	0.121311	0.374012
0	C	0.707776	0.121426	0.668523
0	C	0.355912	0.942604	0.66871
0	C	0.70784	0.942627	0.373951
0	C	0.359517	0.384279	0.934576
0	C	0.704207	0.679706	0.93462
0	C	0.359755	0.679623	0.10839
0	C	0.703605	0.38442	0.108432
0	C	0.38862	0.121147	0.69807
0	C	0.674833	0.120994	0.344631
0	C	0.674942	0.942949	0.698071
0	C	0.388526	0.942928	0.345006
0	C	0.120866	0.35628	0.668857
0	C	0.121096	0.707894	0.374329
0	C	0.94237	0.356382	0.374125
0	C	0.942554	0.707977	0.66874
0	H	0.410421	0.412046	0.0918548
0	H	0.652912	0.652194	0.0918974
0	H	0.653116	0.412735	0.950702
0	H	0.410348	0.651238	0.95062
0	H	0.10641	0.416106	0.397228
0	H	0.106387	0.647928	0.645953
0	H	0.957303	0.648056	0.396993
0	H	0.956918	0.415948	0.645517
0	H	0.408493	0.105564	0.40057
0	H	0.655162	0.105738	0.64181
0	H	0.40853	0.958375	0.642038
0	H	0.65517	0.958329	0.400568
0	H	0.412304	0.41084	0.950818
0	H	0.651442	0.653085	0.950814
0	H	0.412511	0.65309	0.092037
0	H	0.650787	0.410913	0.0922133
0	H	0.415952	0.107043	0.646076
0	H	0.647494	0.106852	0.39661
0	H	0.647612	0.957061	0.646083
0	H	0.415779	0.957082	0.397033
0	H	0.104962	0.408905	0.642218
0	H	0.105285	0.655291	0.401062
0	H	0.958304	0.408974	0.400815
0	H	0.958399	0.655364	0.642053
0	C	0.3064	0.355116	0.114475
0	C	0.756995	0.709058	0.114396
0	C	0.757038	0.35551	0.92836
0	C	0.306454	0.708573	0.928408
0	C	0.125952	0.311274	0.341624
0	C	0.126117	0.752773	0.701472
0	C	0.937677	0.752888	0.341408
0	C	0.937342	0.311194	0.701246
0	C	0.352054	0.126601	0.297962
0	C	0.711261	0.126924	0.744578
0	C	0.352346	0.937202	0.744759
0	C	0.711526	0.937412	0.297885
0	C	0.355065	0.306843	0.92859
0	C	0.708542	0.757147	0.928534
0	C	0.355293	0.757061	0.114391
0	C	0.708148	0.306983	0.114389
0	C	0.311135	0.126656	0.701562
0	C	0.752306	0.12665	0.341178
0	C	0.752427	0.937467	0.701576
0	C	0.311054	0.93742	0.341401
0	C	0.126344	0.352695	0.744898
0	C	0.126632	0.711329	0.298279
0	C	0.93688	0.352872	0.298082
0	C	0.937117	0.71149	0.744795
0	H	0.271981	0.40375	0.101081
0	H	0.791351	0.660356	0.101086
0	H	0.791565	0.404007	0.94195
0	H	0.271908	0.660079	0.941946
0	H	0.114455	0.27755	0.390303
0	H	0.11475	0.786458	0.652739
0	H	0.949205	0.786608	0.390081
0	H	0.948733	0.277423	0.652576
0	H	0.401048	0.113073	0.264742
0	H	0.662108	0.113617	0.777653
0	H	0.401434	0.950619	0.777889
0	H	0.662471	0.950873	0.264731
0	H	0.403553	0.27231	0.942172
0	H	0.659974	0.791609	0.942012
0	H	0.40376	0.791593	0.100744
0	H	0.659692	0.272408	0.100835
0	H	0.277508	0.115373	0.652787
0	H	0.785936	0.115403	0.389963
0	H	0.786051	0.948745	0.652803
0	H	0.277336	0.948738	0.390106
0	H	0.112814	0.401749	0.778066
0	H	0.113229	0.662177	0.265203
0	H	0.950367	0.401961	0.264953
0	H	0.950587	0.662375	0.777902
0	C	0.274417	0.289235	0.138764
0	C	0.789059	0.774938	0.138592
0	C	0.788899	0.289578	0.904047
0	C	0.274621	0.774543	0.904163
0	C	0.14744	0.278569	0.276186
0	C	0.147598	0.785498	0.766909
0	C	0.916146	0.785575	0.275973
0	C	0.915905	0.278563	0.766737
0	C	0.286226	0.1502	0.265704
0	C	0.777017	0.150454	0.777028
0	C	0.286576	0.913629	0.777151
0	C	0.777334	0.9139	0.265523
0	C	0.289145	0.274982	0.904322
0	C	0.774449	0.789084	0.904308
0	C	0.289371	0.788912	0.138699
0	C	0.774125	0.275171	0.138593
0	C	0.278357	0.148032	0.766998
0	C	0.785069	0.14809	0.275748
0	C	0.785202	0.916107	0.767022
0	C	0.278387	0.915996	0.275927
0	C	0.150119	0.286942	0.777231
0	C	0.150316	0.777039	0.265804
0	C	0.913143	0.287155	0.265666
0	C	0.913426	0.777223	0.777223
0	C	0.139972	0.142215	0.132773
0	C	0.923596	0.921901	0.132546
0	C	0.922877	0.142135	0.910238
0	C	0.140672	0.922073	0.910256
0	C	0.141632	0.141013	0.910249
0	C	0.92189	0.923145	0.910304
0	C	0.141712	0.922704	0.132566
0	C	0.92191	0.141434	0.132551
0	C	0.188002	0.191037	0.1801
0	C	0.875551	0.873109	0.179884
0	C	0.875108	0.191129	0.862842
0	C	0.188452	0.87302	0.862928
0	C	0.190767	0.188769	0.862975
0	C	0.872795	0.875376	0.863011
0	C	0.190912	0.875103	0.179918
0	C	0.872636	0.18904	0.179828
