#******************************************
#
# CIF file created by Zeo++
# Zeo++ is an open source package to
# analyze microporous materials
#
#*******************************************

_cell_length_a		23.032(0)
_cell_length_b		23.0867(0)
_cell_length_c		9.48804(0)
_cell_angle_alpha		90(0)
_cell_angle_beta		90(0)
_cell_angle_gamma		90(0)

_symmetry_space_group_name_H-M		'P1'
_symmetry_Int_Tables_number		1
_symmetry_cell_setting		Monoclinic

loop_
_symmetry_equiv_pos_as_xyz
'+x,+y,+z'

loop_
_atom_site_label
_atom_site_type_symbol
_atom_site_fract_x
_atom_site_fract_y
_atom_site_fract_z
0	C	0.641351	0.184926	0.41172
0	C	0.356153	0.798716	0.51358
0	C	0.800527	0.636053	0.463221
0	C	0.184308	0.349174	0.464608
0	C	0.140844	0.682189	0.970933
0	C	0.846455	0.302574	0.962706
0	C	0.304774	0.139446	0.966537
0	C	0.684191	0.84513	0.965345
0	H	0.632632	0.223661	0.475726
0	H	0.376457	0.763926	0.575383
0	H	0.761368	0.622187	0.520173
0	H	0.223523	0.363227	0.520946
0	H	0.126452	0.72035	0.0307987
0	H	0.860118	0.260587	0.00596496
0	H	0.264997	0.125522	0.0207663
0	H	0.723986	0.859437	0.0189644
0	H	0.660017	0.199559	0.310828
0	H	0.328123	0.778244	0.43351
0	H	0.786212	0.661964	0.371981
0	H	0.198431	0.322994	0.373626
0	H	0.166041	0.697716	0.879707
0	H	0.817848	0.293772	0.872062
0	H	0.291634	0.16563	0.874743
0	H	0.6973	0.818548	0.874193
0	H	0.675822	0.160706	0.466073
0	H	0.327207	0.823038	0.584338
0	H	0.824327	0.665736	0.533099
0	H	0.160774	0.31952	0.535189
0	H	0.171523	0.658685	0.0389539
0	H	0.819484	0.323635	0.0434184
0	H	0.327748	0.168972	0.0385783
0	H	0.661395	0.81599	0.0384303
0	C	0.588432	0.148862	0.387527
0	C	0.400882	0.837063	0.447607
0	C	0.837174	0.586009	0.417714
0	C	0.147292	0.398953	0.41894
0	C	0.0912608	0.644763	0.925774
0	C	0.896584	0.339805	0.920038
0	C	0.342038	0.0895324	0.923051
0	C	0.646775	0.894759	0.920638
0	C	0.587406	0.0916201	0.43518
0	C	0.40197	0.895676	0.483511
0	C	0.895213	0.584097	0.46002
0	C	0.0891708	0.400099	0.46087
0	C	0.0905071	0.586834	0.968232
0	C	0.896849	0.397893	0.961264
0	C	0.400218	0.0889512	0.964664
0	C	0.588605	0.895405	0.962289
0	H	0.62377	0.0747477	0.49666
0	H	0.369219	0.91305	0.555505
0	H	0.912582	0.618453	0.527156
0	H	0.0722047	0.365613	0.528277
0	H	0.125563	0.570089	0.0344448
0	H	0.861089	0.414867	0.0247268
0	H	0.417259	0.124314	0.0292702
0	H	0.571668	0.860297	0.0277211
0	C	0.540785	0.05503	0.403585
0	C	0.444188	0.9329	0.4282
0	C	0.931836	0.539178	0.416664
0	C	0.0519307	0.444373	0.416669
0	C	0.0459288	0.549556	0.925951
0	C	0.941846	0.435031	0.921065
0	C	0.437448	0.0441599	0.923728
0	C	0.551301	0.939949	0.920218
0	H	0.541362	0.0104267	0.441086
0	H	0.443612	0.97847	0.457087
0	H	0.976941	0.539068	0.451064
0	H	0.00676428	0.443817	0.450704
0	H	0.0466589	0.504534	0.960235
0	H	0.940946	0.480107	0.95486
0	H	0.482607	0.0449414	0.957646
0	H	0.506083	0.939109	0.953746
0	C	0.494596	0.075803	0.323133
0	C	0.486181	0.911259	0.336627
0	C	0.910322	0.495549	0.329571
0	C	0.0729088	0.48819	0.329339
0	C	0.00158533	0.570289	0.839667
0	C	0.98703	0.414072	0.837661
0	C	0.416419	0.999386	0.839401
0	C	0.5723	0.984494	0.835102
0	H	0.459008	0.0470278	0.294241
0	H	0.519439	0.939773	0.293353
0	H	0.938789	0.460863	0.293266
0	H	0.0438541	0.522252	0.292218
0	H	0.96699	0.541355	0.804491
0	H	0.02198	0.442933	0.804133
0	H	0.445237	0.964647	0.805285
0	H	0.543408	0.0190386	0.80038
0	C	0.493256	0.133582	0.279419
0	C	0.486212	0.852752	0.298683
0	C	0.852118	0.495623	0.288148
0	C	0.131248	0.489067	0.288964
0	C	0.000609433	0.628264	0.797735
0	C	0.988352	0.356012	0.796585
0	C	0.358221	0.998236	0.798194
0	C	0.630512	0.985603	0.793959
0	H	0.455923	0.149309	0.219575
0	H	0.520399	0.836931	0.228804
0	H	0.836145	0.46021	0.222424
0	H	0.146868	0.524613	0.223194
0	H	0.96462	0.643475	0.732398
0	H	0.0248444	0.340637	0.733032
0	H	0.342829	0.962087	0.734189
0	H	0.645929	0.0216098	0.729615
0	C	0.53918	0.170976	0.313978
0	C	0.443497	0.815268	0.351736
0	C	0.814836	0.540164	0.332574
0	C	0.169123	0.445141	0.334018
0	C	0.0447967	0.666211	0.840962
0	C	0.943822	0.318142	0.838285
0	C	0.320312	0.0426161	0.840444
0	C	0.668467	0.941364	0.836972
0	N	0.53442	0.232289	0.296682
0	N	0.444432	0.754233	0.328097
0	N	0.753513	0.537291	0.312285
0	N	0.230477	0.449125	0.314579
0	N	0.0410607	0.727313	0.819262
0	N	0.948081	0.256988	0.818325
0	N	0.259014	0.0384578	0.820016
0	N	0.729742	0.945337	0.816393
0	H	0.57297	0.254078	0.319825
0	H	0.404361	0.734511	0.345823
0	H	0.732327	0.576116	0.335019
0	H	0.251834	0.410266	0.337429
0	H	0.0796685	0.748862	0.841206
0	H	0.90967	0.23511	0.841695
0	H	0.237215	0.0769323	0.842148
0	H	0.751608	0.907082	0.840257
0	C	0.505233	0.26171	0.178015
0	C	0.474543	0.724404	0.211555
0	C	0.723751	0.507997	0.19426
0	C	0.259895	0.47761	0.194899
0	C	0.0112398	0.756175	0.70063
0	C	0.977684	0.227933	0.699555
0	C	0.23008	0.00845954	0.701665
0	C	0.759	0.97473	0.697662
0	C	0.492476	0.231297	0.0412954
0	C	0.487897	0.753278	0.0728828
0	C	0.753456	0.494924	0.0566743
0	C	0.229824	0.490163	0.0572744
0	C	0.998062	0.72555	0.564242
0	C	0.990475	0.258465	0.562911
0	C	0.260974	0.995053	0.565633
0	C	0.728731	0.987572	0.560465
0	C	0.530051	0.18867	0.988169
0	C	0.451416	0.796492	0.0181868
0	C	0.796798	0.531596	0.00327603
0	C	0.186739	0.453099	0.00406248
0	C	0.0348059	0.682123	0.511673
0	C	0.953128	0.301453	0.510805
0	C	0.303184	0.0328325	0.511296
0	C	0.684908	0.951117	0.50844
0	H	0.567329	0.174402	0.0498981
0	H	0.414133	0.811457	0.0791739
0	H	0.811612	0.568589	0.0651101
0	H	0.171979	0.416157	0.066158
0	H	0.0721022	0.667897	0.573414
0	H	0.915913	0.31543	0.573148
0	H	0.316363	0.0708042	0.571798
0	H	0.669922	0.914444	0.571224
0	C	0.52055	0.164295	0.855587
0	C	0.462122	0.820611	0.885848
0	C	0.821116	0.521497	0.870845
0	C	0.162439	0.462709	0.871274
0	C	0.0244113	0.656917	0.380394
0	C	0.962836	0.326537	0.37915
0	C	0.328438	0.0225369	0.379993
0	C	0.660158	0.961089	0.376407
0	H	0.550058	0.131294	0.815445
0	H	0.43352	0.85426	0.844838
0	H	0.854766	0.550327	0.830854
0	H	0.128974	0.433539	0.831642
0	H	0.0533824	0.623199	0.341178
0	H	0.933416	0.359857	0.340303
0	H	0.36101	0.0524273	0.33923
0	H	0.626083	0.932368	0.33783
0	C	0.473115	0.181851	0.773036
0	C	0.509654	0.801989	0.804944
0	C	0.802625	0.47438	0.788722
0	C	0.180565	0.509797	0.788533
0	C	0.976712	0.674598	0.2985
0	C	0.0103957	0.309228	0.296355
0	C	0.312319	0.973966	0.300162
0	C	0.678705	0.00777543	0.293104
0	C	0.435885	0.225025	0.825496
0	C	0.545519	0.757828	0.858443
0	C	0.758529	0.438161	0.841224
0	C	0.224184	0.546588	0.841091
0	C	0.940299	0.718696	0.3501
0	C	0.0474166	0.265622	0.347771
0	C	0.269661	0.93637	0.353935
0	C	0.723444	0.0436615	0.343919
0	H	0.399271	0.239359	0.762094
0	H	0.582059	0.742686	0.795755
0	H	0.743472	0.401891	0.777753
0	H	0.238691	0.583101	0.777566
0	H	0.903433	0.732861	0.286988
0	H	0.0841952	0.251761	0.28416
0	H	0.25688	0.898518	0.292959
0	H	0.738643	0.0795672	0.279251
0	C	0.445396	0.249435	0.957725
0	C	0.534757	0.733677	0.990361
0	C	0.734212	0.448282	0.973329
0	C	0.248535	0.53689	0.973342
0	C	0.950807	0.74391	0.480958
0	C	0.0376365	0.240456	0.479004
0	C	0.244187	0.946873	0.484594
0	C	0.748094	0.0337228	0.475753
0	H	0.415695	0.283209	0.99406
0	H	0.563394	0.699018	0.0271022
0	H	0.699698	0.419403	0.0096835
0	H	0.282768	0.566278	0.00919058
0	H	0.921781	0.778342	0.516614
0	H	0.0670971	0.206398	0.514518
0	H	0.210879	0.916798	0.521695
0	H	0.782883	0.0624512	0.511163
0	C	0.461912	0.155893	0.632191
0	C	0.522647	0.827861	0.664919
0	C	0.828545	0.462327	0.64822
0	C	0.154861	0.52147	0.647493
0	C	0.964118	0.647483	0.159745
0	C	0.0221963	0.336233	0.157055
0	C	0.339443	0.961712	0.161084
0	C	0.65158	0.0201706	0.154158
0	H	0.464051	0.188813	0.547641
0	H	0.518648	0.795338	0.57954
0	H	0.79557	0.465106	0.56362
0	H	0.187722	0.517406	0.562993
0	H	0.964623	0.679821	0.0735947
0	H	0.0223384	0.303617	0.0715466
0	H	0.30688	0.962079	0.0753177
0	H	0.683971	0.0197432	0.068016
0	H	0.418734	0.135762	0.627044
0	H	0.567053	0.845278	0.66049
0	H	0.84761	0.418746	0.643534
0	H	0.13682	0.565473	0.640829
0	H	0.921066	0.626829	0.159237
0	H	0.0647373	0.357901	0.155659
0	H	0.360497	0.918949	0.160083
0	H	0.630748	0.0630552	0.153498
0	H	0.493434	0.122096	0.603494
0	H	0.493404	0.863696	0.63634
0	H	0.86317	0.492865	0.619014
0	H	0.119394	0.49168	0.619548
0	H	0.995639	0.613847	0.129669
0	H	0.989894	0.369055	0.126681
0	H	0.372861	0.993448	0.13103
0	H	0.617908	0.988667	0.124279
0	C	0.536687	0.320612	0.144135
0	C	0.442893	0.665365	0.180339
0	C	0.664789	0.539653	0.161353
0	C	0.318691	0.445325	0.162663
0	C	0.0424803	0.814822	0.664257
0	C	0.946242	0.169285	0.663831
0	C	0.171397	0.0398095	0.664733
0	C	0.817756	0.943153	0.662509
0	H	0.504398	0.354853	0.113543
0	H	0.474994	0.63015	0.157665
0	H	0.62996	0.5076	0.133903
0	H	0.354464	0.476761	0.137731
0	H	0.010053	0.848403	0.631034
0	H	0.978828	0.135072	0.635407
0	H	0.137263	0.00743614	0.634947
0	H	0.852057	0.975289	0.632413
0	C	0.58217	0.313604	0.0294742
0	C	0.400146	0.671803	0.059309
0	C	0.671814	0.58399	0.0441404
0	C	0.311598	0.401453	0.0444834
0	C	0.088633	0.806681	0.551481
0	C	0.901823	0.176756	0.54649
0	C	0.179276	0.0844379	0.548282
0	C	0.809672	0.898254	0.546837
0	C	0.638848	0.296279	0.063027
0	C	0.344566	0.694185	0.0850868
0	C	0.692159	0.6399	0.073878
0	C	0.291816	0.345256	0.0738147
0	C	0.144881	0.789536	0.589279
0	C	0.846583	0.199531	0.57456
0	C	0.198693	0.140542	0.579373
0	C	0.788761	0.842762	0.578725
0	H	0.65173	0.290382	0.1734
0	H	0.331613	0.705466	0.192945
0	H	0.700821	0.653053	0.183101
0	H	0.282897	0.332091	0.18288
0	H	0.156283	0.783059	0.70038
0	H	0.834122	0.210584	0.682951
0	H	0.207274	0.153293	0.68877
0	H	0.779698	0.830576	0.688308
0	C	0.679222	0.286441	0.956416
0	C	0.305871	0.702429	0.974383
0	C	0.701702	0.679214	0.964916
0	C	0.283472	0.305707	0.964911
0	C	0.186947	0.780688	0.485978
0	C	0.807135	0.208443	0.46511
0	C	0.207286	0.180658	0.471558
0	C	0.779114	0.802686	0.471422
0	H	0.723198	0.271389	0.982318
0	H	0.262642	0.72103	0.993696
0	H	0.719102	0.722545	0.987559
0	H	0.267053	0.261998	0.987159
0	H	0.230835	0.766579	0.515611
0	H	0.764101	0.227112	0.486698
0	H	0.223402	0.224367	0.495844
0	H	0.761676	0.759545	0.49615
0	C	0.662629	0.294964	0.815247
0	C	0.323068	0.687492	0.836881
0	C	0.689775	0.66246	0.825445
0	C	0.295545	0.322667	0.825569
0	C	0.172253	0.788956	0.343618
0	C	0.823251	0.193808	0.326765
0	C	0.195835	0.164431	0.331519
0	C	0.791105	0.818325	0.331183
0	C	0.606534	0.314363	0.780426
0	C	0.378325	0.664068	0.809891
0	C	0.667749	0.607036	0.794664
0	C	0.316345	0.378598	0.795111
0	C	0.116107	0.806829	0.304389
0	C	0.878055	0.169661	0.297795
0	C	0.175604	0.108507	0.299091
0	C	0.813144	0.873514	0.298064
0	H	0.594806	0.321154	0.669785
0	H	0.390722	0.652917	0.701911
0	H	0.658537	0.595036	0.685265
0	H	0.325325	0.390918	0.685917
0	H	0.105511	0.812939	0.192885
0	H	0.889413	0.158231	0.189237
0	H	0.166955	0.0966592	0.189327
0	H	0.822274	0.884869	0.188243
0	C	0.566609	0.323689	0.888192
0	C	0.416635	0.656218	0.9218
0	C	0.65883	0.568065	0.904502
0	C	0.324422	0.417691	0.905042
0	C	0.0746319	0.815753	0.40881
0	C	0.91707	0.16127	0.407892
0	C	0.167411	0.0688518	0.407841
0	C	0.822337	0.913158	0.406353
0	H	0.52253	0.337603	0.862794
0	H	0.45999	0.638938	0.90265
0	H	0.642885	0.524497	0.882059
0	H	0.339672	0.461556	0.88312
0	H	0.0306927	0.828755	0.379757
0	H	0.960139	0.14364	0.386292
0	H	0.152798	0.0249784	0.384018
0	H	0.838226	0.956564	0.381965
0	C	0.347154	0.216588	0.351349
0	C	0.636473	0.769927	0.367388
0	C	0.769366	0.34782	0.355664
0	C	0.216966	0.637786	0.361345
0	C	0.849488	0.71117	0.857807
0	C	0.138904	0.273434	0.859279
0	C	0.275081	0.847988	0.864354
0	C	0.714677	0.136251	0.854887
0	H	0.315069	0.25177	0.342481
0	H	0.666722	0.734675	0.340493
0	H	0.733964	0.316666	0.337162
0	H	0.252092	0.66939	0.345485
0	H	0.819016	0.746527	0.83362
0	H	0.169362	0.237813	0.837439
0	H	0.241009	0.816296	0.838641
0	H	0.750418	0.166194	0.830293
0	H	0.363679	0.213549	0.459736
0	H	0.626491	0.769915	0.480608
0	H	0.771571	0.360474	0.467116
0	H	0.215705	0.622985	0.471546
0	H	0.860482	0.71044	0.970567
0	H	0.127219	0.274981	0.971553
0	H	0.274016	0.859811	0.976505
0	H	0.71388	0.125493	0.96772
0	H	0.328526	0.174927	0.317883
0	H	0.654525	0.812072	0.335981
0	H	0.811119	0.329437	0.321646
0	H	0.174866	0.656617	0.331846
0	H	0.831197	0.669216	0.825499
0	H	0.157573	0.315106	0.826115
0	H	0.318113	0.83075	0.83659
0	H	0.67284	0.154897	0.822483
0	C	0.477155	0.320191	0.518328
0	C	0.504417	0.664686	0.544605
0	C	0.665505	0.47945	0.531634
0	C	0.320016	0.506801	0.530005
0	C	0.981669	0.81337	0.0386132
0	C	0.00663432	0.170518	0.0370813
0	C	0.172515	0.980257	0.0399412
0	C	0.818367	0.00465863	0.033839
0	H	0.518216	0.328157	0.46193
0	H	0.462306	0.658636	0.490958
0	H	0.65875	0.521047	0.4767
0	H	0.326253	0.465384	0.474042
0	H	0.0234191	0.821014	0.984476
0	H	0.964464	0.163931	0.984038
0	H	0.166001	0.022104	0.986447
0	H	0.826196	0.963059	0.980218
0	H	0.485561	0.299495	0.620883
0	H	0.497503	0.679844	0.653247
0	H	0.682863	0.48715	0.638058
0	H	0.30084	0.499215	0.634784
0	H	0.989341	0.796162	0.145123
0	H	0.999857	0.186854	0.144752
0	H	0.18925	0.987119	0.147234
0	H	0.802293	0.997104	0.141438
0	H	0.452261	0.360337	0.531172
0	H	0.530366	0.624848	0.543134
0	H	0.625325	0.454017	0.536025
0	H	0.36098	0.530723	0.539333
0	H	0.955384	0.852953	0.0424353
0	H	0.0324266	0.130586	0.0379129
0	H	0.13233	0.954781	0.0417497
0	H	0.857601	0.0315815	0.0350014
0	N	0.704495	0.282267	0.703236
0	N	0.282476	0.697637	0.720782
0	N	0.701518	0.703208	0.710581
0	N	0.285131	0.281632	0.710647
0	N	0.216127	0.778463	0.234616
0	N	0.782977	0.204409	0.209786
0	N	0.205706	0.206552	0.21827
0	N	0.779683	0.776449	0.218418
0	O	0.562565	0.337898	0.274255
0	O	0.413029	0.650172	0.307145
0	O	0.64836	0.566814	0.290481
0	O	0.334311	0.416807	0.29094
0	O	0.0681045	0.834125	0.793274
0	O	0.918613	0.151233	0.791371
0	O	0.152901	0.0670202	0.792397
0	O	0.83592	0.916305	0.790852
0	H	0.593391	0.369048	0.259569
0	H	0.381801	0.619109	0.287466
0	H	0.617722	0.598133	0.274744
0	H	0.364918	0.385098	0.272136
0	H	0.0984936	0.865363	0.775668
0	H	0.888077	0.120157	0.772351
0	H	0.122102	0.0977838	0.773718
0	H	0.866988	0.885681	0.772942
0	O	0.44112	0.277144	0.450099
0	O	0.537569	0.711845	0.483582
0	O	0.711098	0.445108	0.467353
0	O	0.276927	0.543566	0.463769
0	O	0.948498	0.767194	0.97362
0	O	0.03986	0.216922	0.973153
0	O	0.218589	0.94662	0.975765
0	O	0.770905	0.0366644	0.97057
0	O	0.393762	0.224191	0.249917
0	O	0.583967	0.766801	0.282966
0	O	0.763765	0.397879	0.264034
0	O	0.222123	0.589653	0.263516
0	O	0.901243	0.715034	0.770793
0	O	0.0876355	0.269203	0.770656
0	O	0.270736	0.898591	0.773876
0	O	0.71789	0.0843094	0.768776
0	O	0.413454	0.3372	0.223805
0	O	0.569736	0.652557	0.261843
0	O	0.649639	0.414872	0.247422
0	O	0.335348	0.56934	0.232999
0	O	0.915999	0.82914	0.756248
0	O	0.0729359	0.15499	0.756427
0	O	0.156408	0.913905	0.759326
0	O	0.832293	0.0698141	0.752699
0	O	0.751173	0.260607	0.737371
0	O	0.237431	0.724133	0.747188
0	O	0.725518	0.749253	0.739703
0	O	0.262115	0.235038	0.739293
0	O	0.265413	0.765504	0.272351
0	O	0.737919	0.231036	0.234405
0	O	0.227421	0.253418	0.249996
0	O	0.755028	0.731056	0.250126
0	O	0.691774	0.292667	0.580533
0	O	0.294505	0.680514	0.60235
0	O	0.688044	0.690026	0.590019
0	O	0.298695	0.29509	0.590257
0	O	0.202183	0.782536	0.110502
0	O	0.795694	0.187138	0.0918387
0	O	0.192841	0.193803	0.0970825
0	O	0.794142	0.787945	0.0975536
0	P	0.436315	0.280335	0.277769
0	P	0.544053	0.708779	0.310909
0	P	0.70683	0.439073	0.294778
0	P	0.278586	0.54717	0.29079
0	P	0.941811	0.772499	0.801362
0	P	0.0470439	0.211698	0.800842
0	P	0.21337	0.939601	0.803404
0	P	0.775608	0.0438945	0.798168
