#******************************************
#
# CIF file created by Zeo++
# Zeo++ is an open source package to
# analyze microporous materials
#
#*******************************************

_cell_length_a		28.7321(0)
_cell_length_b		28.9855(0)
_cell_length_c		6.51854(0)
_cell_angle_alpha		90(0)
_cell_angle_beta		90(0)
_cell_angle_gamma		120.124(0)

_symmetry_space_group_name_H-M		'P1'
_symmetry_Int_Tables_number		1
_symmetry_cell_setting		Monoclinic

loop_
_symmetry_equiv_pos_as_xyz
'+x,+y,+z'

loop_
_atom_site_label
_atom_site_type_symbol
_atom_site_fract_x
_atom_site_fract_y
_atom_site_fract_z
0	N	0.469397	0.938362	0.179
0	N	0.0727655	0.529161	0.180886
0	N	0.481312	0.540367	0.178578
0	N	0.545538	0.0667068	0.863415
0	N	0.943132	0.475864	0.866065
0	N	0.53408	0.464767	0.866352
0	N	0.137381	0.272375	0.513786
0	N	0.738396	0.86135	0.510573
0	N	0.147969	0.873471	0.514775
0	N	0.212807	0.40101	0.202889
0	N	0.60819	0.807551	0.201916
0	N	0.201251	0.798788	0.197993
0	N	0.802438	0.603773	0.841384
0	N	0.406873	0.197547	0.841712
0	N	0.813961	0.206362	0.845862
0	N	0.877748	0.732492	0.53078
0	N	0.276672	0.143735	0.533109
0	N	0.867207	0.131625	0.529262
0	C	0.480605	0.980522	0.0410063
0	C	0.0301152	0.498042	0.043213
0	C	0.51247	0.529246	0.0407472
0	C	0.534325	0.0245428	0.00136538
0	C	0.985777	0.5072	0.00348658
0	C	0.502968	0.475927	0.00428931
0	C	0.14816	0.314396	0.376214
0	C	0.695293	0.829491	0.376007
0	C	0.179652	0.863089	0.376389
0	C	0.201795	0.358721	0.339443
0	C	0.650952	0.838751	0.338692
0	C	0.170464	0.809887	0.338162
0	C	0.813445	0.646081	0.704931
0	C	0.364175	0.166414	0.70469
0	C	0.844824	0.195277	0.706037
0	C	0.867055	0.690454	0.668185
0	C	0.319816	0.175651	0.667446
0	C	0.835571	0.142053	0.667726
0	N	0.434615	0.973868	0.955785
0	N	0.0364739	0.458884	0.958186
0	N	0.551691	0.574746	0.953922
0	N	0.580294	0.0312068	0.0868426
0	N	0.979294	0.546364	0.0876992
0	N	0.463715	0.430444	0.0910682
0	N	0.102136	0.306981	0.288324
0	N	0.701703	0.790294	0.291602
0	N	0.218369	0.909007	0.290091
0	N	0.247859	0.365351	0.424247
0	N	0.644894	0.878217	0.422566
0	N	0.13135	0.76425	0.425049
0	N	0.767388	0.639497	0.620279
0	N	0.370225	0.126956	0.620743
0	N	0.884053	0.240928	0.619656
0	N	0.91311	0.697945	0.756001
0	N	0.313359	0.214797	0.752047
0	N	0.796847	0.0961603	0.754102
0	C	0.393096	0.926488	0.0378835
0	C	0.0841658	0.464943	0.0403154
0	C	0.545645	0.615973	0.0361873
0	C	0.621835	0.0786137	0.00486259
0	C	0.93156	0.540114	0.00516919
0	C	0.469651	0.389174	0.00861467
0	C	0.0608745	0.259148	0.369163
0	C	0.749863	0.796941	0.371823
0	C	0.211464	0.949734	0.372644
0	C	0.289338	0.412765	0.341669
0	C	0.597567	0.872598	0.338459
0	C	0.136929	0.722997	0.339963
0	C	0.725907	0.592081	0.702809
0	C	0.417508	0.132512	0.705119
0	C	0.87845	0.282173	0.704767
0	C	0.954317	0.74582	0.675227
0	C	0.265129	0.208048	0.672243
0	C	0.803686	0.0553908	0.671533
0	C	0.414042	0.903778	0.175774
0	C	0.107318	0.508593	0.177776
0	C	0.501881	0.595192	0.174933
0	C	0.600888	0.101314	0.866909
0	C	0.908503	0.496338	0.868313
0	C	0.513405	0.409919	0.869806
0	C	0.0822193	0.237083	0.508304
0	C	0.773111	0.840977	0.507491
0	C	0.167728	0.928172	0.511561
0	C	0.268173	0.435428	0.204451
0	C	0.574256	0.828809	0.201646
0	C	0.180404	0.743891	0.199801
0	C	0.747069	0.569389	0.839905
0	C	0.440772	0.176252	0.842183
0	C	0.834864	0.261264	0.844384
0	C	0.9329	0.767849	0.536262
0	C	0.241877	0.164006	0.536612
0	C	0.847396	0.0769115	0.532491
0	C	0.336353	0.904322	0.97976
0	C	0.106165	0.4305	0.983322
0	C	0.580512	0.672339	0.979179
0	C	0.678572	0.100772	0.0631798
0	C	0.909393	0.574478	0.0612516
0	C	0.434645	0.332805	0.0652404
0	C	0.003971	0.236377	0.310844
0	C	0.772223	0.762785	0.314094
0	C	0.245314	0.00635313	0.316157
0	C	0.346267	0.435115	0.39832
0	C	0.576259	0.907806	0.393228
0	C	0.102018	0.666479	0.395365
0	C	0.668991	0.569758	0.646154
0	C	0.438755	0.0972657	0.65021
0	C	0.91343	0.338702	0.649686
0	C	0.0112384	0.768639	0.733443
0	C	0.242659	0.242085	0.730356
0	C	0.769756	0.998778	0.72794
0	O	0.301998	0.857914	0.0233328
0	O	0.152468	0.442104	0.0309511
0	O	0.568738	0.70654	0.0265685
0	O	0.712961	0.147121	0.0192714
0	O	0.863118	0.562796	0.0127323
0	O	0.446258	0.298511	0.0176899
0	O	0.969733	0.190079	0.355848
0	O	0.818799	0.774968	0.36017
0	O	0.233162	0.0401277	0.366208
0	O	0.380442	0.481271	0.350911
0	O	0.530355	0.896871	0.342403
0	O	0.113319	0.632133	0.345035
0	O	0.634811	0.523567	0.693121
0	O	0.484682	0.108221	0.700595
0	O	0.902155	0.373049	0.700248
0	O	0.0454512	0.814931	0.688311
0	O	0.196017	0.229757	0.684727
0	O	0.781833	0.964944	0.67805
0	N	0.323078	0.938362	0.879937
0	N	0.0719533	0.383722	0.879989
0	N	0.627921	0.685417	0.877101
0	N	0.691767	0.0667327	0.163468
0	N	0.943406	0.621272	0.164928
0	N	0.387224	0.31981	0.167033
0	N	0.990061	0.269983	0.210775
0	N	0.738276	0.715616	0.212103
0	N	0.292625	0.0205066	0.21126
0	N	0.360057	0.40177	0.500766
0	N	0.610564	0.95453	0.497103
0	N	0.0547943	0.65327	0.499128
0	N	0.655191	0.603145	0.544032
0	N	0.404364	0.0505009	0.546769
0	N	0.960663	0.351903	0.545835
0	N	0.0251614	0.735041	0.83352
0	N	0.276536	0.289271	0.832367
0	N	0.722417	0.984701	0.832441
0	C	0.268341	0.917592	0.796466
0	C	0.0926085	0.350052	0.796546
0	C	0.661461	0.739538	0.791673
0	C	0.746497	0.0874739	0.247167
0	C	0.922489	0.654779	0.247824
0	C	0.353474	0.265667	0.251728
0	C	0.935299	0.248199	0.125684
0	C	0.759805	0.682866	0.126097
0	C	0.325016	0.0749598	0.127031
0	C	0.414928	0.423456	0.584747
0	C	0.589697	0.987994	0.581324
0	C	0.0210603	0.59897	0.582746
0	C	0.600329	0.581474	0.460027
0	C	0.42511	0.0169473	0.462447
0	C	0.994244	0.406162	0.461608
0	C	0.0799322	0.756786	0.918415
0	C	0.254935	0.321967	0.918121
0	C	0.689884	0.930232	0.916458
0	H	0.264074	0.950454	0.731798
0	H	0.0592124	0.312618	0.734215
0	H	0.699336	0.744222	0.72986
0	H	0.750675	0.0546036	0.312294
0	H	0.955674	0.692059	0.312096
0	H	0.315651	0.261093	0.313624
0	H	0.930698	0.280403	0.0563855
0	H	0.72686	0.645686	0.0600899
0	H	0.362922	0.0805689	0.0615728
0	H	0.419896	0.390921	0.648733
0	H	0.623092	0.025635	0.642003
0	H	0.982719	0.593951	0.640995
0	H	0.595287	0.614038	0.39683
0	H	0.391615	0.979158	0.403315
0	H	0.032613	0.411261	0.403362
0	H	0.0844324	0.724599	0.988486
0	H	0.287705	0.358804	0.986946
0	H	0.652023	0.924723	0.981951
0	H	0.238015	0.898431	0.919637
0	H	0.112418	0.339627	0.919239
0	H	0.671809	0.769947	0.912798
0	H	0.776839	0.10652	0.123932
0	H	0.903106	0.665488	0.124396
0	H	0.3431	0.23536	0.130105
0	H	0.904749	0.229617	0.248611
0	H	0.779306	0.671912	0.248297
0	H	0.335455	0.105057	0.249792
0	H	0.445245	0.443244	0.461938
0	H	0.569329	0.998024	0.459832
0	H	0.0117011	0.56881	0.461151
0	H	0.569988	0.561476	0.582587
0	H	0.445806	0.00719023	0.583516
0	H	0.00356476	0.436399	0.582711
0	H	0.110443	0.775128	0.79521
0	H	0.236135	0.333541	0.795185
0	H	0.679372	0.900162	0.793566
0	H	0.259031	0.887602	0.674848
0	H	0.122368	0.370485	0.67296
0	H	0.640539	0.747883	0.66741
0	H	0.755854	0.117542	0.368472
0	H	0.892304	0.634079	0.369812
0	H	0.374232	0.257058	0.375846
0	H	0.926316	0.217538	0.00732568
0	H	0.790015	0.704368	0.00498328
0	H	0.303221	0.0831445	0.00584935
0	H	0.423525	0.453156	0.706918
0	H	0.560399	0.967532	0.706286
0	H	0.0413882	0.590564	0.709276
0	H	0.591816	0.551949	0.337225
0	H	0.454087	0.0371996	0.336348
0	H	0.973818	0.414387	0.334895
0	H	0.0890555	0.787634	0.0361211
0	H	0.224107	0.300154	0.0369438
0	H	0.711607	0.921924	0.037537
0	C	0.385335	0.854176	0.299036
0	C	0.157265	0.529781	0.301213
0	C	0.480177	0.62274	0.300639
0	C	0.6296	0.150951	0.743879
0	C	0.858583	0.474964	0.744653
0	C	0.534988	0.382299	0.743816
0	C	0.0549677	0.187606	0.632174
0	C	0.822963	0.863285	0.631992
0	C	0.145045	0.954851	0.636943
0	C	0.296069	0.484774	0.0795552
0	C	0.524783	0.80754	0.0753737
0	C	0.201838	0.716101	0.0738096
0	C	0.71912	0.520045	0.964822
0	C	0.490181	0.197497	0.968889
0	C	0.813393	0.28905	0.970183
0	C	0.960087	0.817327	0.41236
0	C	0.191938	0.14163	0.412705
0	C	0.869978	0.0501637	0.406963
0	H	0.413408	0.841746	0.360647
0	H	0.170093	0.570249	0.361764
0	H	0.439569	0.594066	0.361662
0	H	0.601529	0.163456	0.682881
0	H	0.845754	0.434385	0.685308
0	H	0.575608	0.410919	0.682703
0	H	0.0843135	0.176858	0.694512
0	H	0.834259	0.903436	0.692838
0	H	0.104798	0.925497	0.699007
0	H	0.267329	0.496635	0.0198794
0	H	0.512517	0.767135	0.0151667
0	H	0.242277	0.744541	0.010969
0	H	0.747824	0.50822	0.0251415
0	H	0.502211	0.237748	0.0302351
0	H	0.772904	0.260621	0.0326098
0	H	0.930714	0.828116	0.350666
0	H	0.180435	0.10132	0.35307
0	H	0.910235	0.0794655	0.3448
0	H	0.356757	0.821151	0.196398
0	H	0.19046	0.534154	0.198949
0	H	0.474911	0.650961	0.200035
0	H	0.658267	0.183914	0.846561
0	H	0.825364	0.470782	0.846332
0	H	0.540182	0.353998	0.844225
0	H	0.0275664	0.154077	0.52946
0	H	0.856722	0.8689	0.530574
0	H	0.138625	0.982146	0.535322
0	H	0.32491	0.518062	0.180566
0	H	0.491197	0.802843	0.175865
0	H	0.20729	0.688134	0.175423
0	H	0.690389	0.486736	0.863666
0	H	0.523897	0.202556	0.868367
0	H	0.808029	0.317058	0.868517
0	H	0.987618	0.850845	0.514888
0	H	0.158323	0.136363	0.514232
0	H	0.876348	0.0228186	0.508485
0	C	0.353239	0.860746	0.474545
0	C	0.150273	0.491551	0.477895
0	C	0.518788	0.65408	0.477295
0	C	0.661561	0.144405	0.567801
0	C	0.865627	0.512888	0.566698
0	C	0.496319	0.351054	0.567235
0	C	0.0220246	0.193093	0.806872
0	C	0.816655	0.825356	0.808844
0	C	0.183518	0.987417	0.812182
0	C	0.327459	0.478131	0.901697
0	C	0.532216	0.845694	0.897962
0	C	0.162897	0.683994	0.899208
0	C	0.687546	0.526676	0.142041
0	C	0.482831	0.159108	0.145277
0	C	0.852247	0.321078	0.145158
0	C	0.992828	0.81177	0.237057
0	C	0.198242	0.179268	0.234728
0	C	0.831442	0.0176565	0.231878
0	H	0.32673	0.874764	0.409989
0	H	0.136455	0.4512	0.413968
0	H	0.559485	0.68093	0.413171
0	H	0.688047	0.130292	0.631773
0	H	0.879603	0.553389	0.6294
0	H	0.455573	0.324379	0.63127
0	H	0.994889	0.206209	0.74116
0	H	0.803031	0.78497	0.745481
0	H	0.223962	0.0147717	0.747092
0	H	0.35515	0.465352	0.964361
0	H	0.546192	0.886182	0.961148
0	H	0.122371	0.657131	0.964574
0	H	0.659887	0.539419	0.0787272
0	H	0.46912	0.118769	0.0810486
0	H	0.892761	0.348094	0.0799909
0	H	0.0199798	0.798604	0.302179
0	H	0.21219	0.219834	0.296838
0	H	0.790966	0.990445	0.296961
0	H	0.381087	0.892029	0.582262
0	H	0.11834	0.487648	0.583838
0	H	0.522645	0.62618	0.582786
0	H	0.633628	0.113191	0.460066
0	H	0.897461	0.516466	0.460956
0	H	0.492642	0.379017	0.461524
0	H	0.0493009	0.224661	0.915255
0	H	0.784795	0.821327	0.915551
0	H	0.188221	0.960397	0.919768
0	H	0.299323	0.445864	0.797742
0	H	0.564173	0.849163	0.792873
0	H	0.158532	0.711324	0.792348
0	H	0.715583	0.558967	0.24616
0	H	0.450701	0.15526	0.250311
0	H	0.856682	0.2937	0.25152
0	H	0.965428	0.780213	0.128913
0	H	0.229866	0.182866	0.127704
0	H	0.82687	0.0447105	0.124078
0	C	0.31898	0.808539	0.589478
0	C	0.202661	0.510337	0.595192
0	C	0.499829	0.687009	0.595478
0	C	0.695811	0.196655	0.453095
0	C	0.81322	0.494045	0.449501
0	C	0.515024	0.317869	0.449304
0	C	0.98886	0.140535	0.920736
0	C	0.869185	0.844626	0.925459
0	C	0.163398	0.0198263	0.927132
0	C	0.359722	0.529752	0.781071
0	C	0.480143	0.827106	0.778791
0	C	0.181849	0.650911	0.78196
0	C	0.655196	0.475073	0.262633
0	C	0.534857	0.177775	0.264852
0	C	0.833106	0.353922	0.26303
0	C	0.0259389	0.86431	0.122982
0	C	0.1456	0.16005	0.118982
0	C	0.851336	0.985011	0.117121
0	H	0.298482	0.814584	0.720782
0	H	0.196508	0.48373	0.725762
0	H	0.526303	0.70681	0.72774
0	H	0.716263	0.190645	0.321555
0	H	0.819442	0.520312	0.31766
0	H	0.4885	0.298111	0.31715
0	H	0.966905	0.145453	0.0492551
0	H	0.863137	0.81841	0.0573038
0	H	0.189879	0.0411055	0.0574791
0	H	0.379853	0.523577	0.648594
0	H	0.48696	0.85337	0.646401
0	H	0.154946	0.630187	0.651643
0	H	0.635057	0.481294	0.394981
0	H	0.528129	0.151239	0.396214
0	H	0.859929	0.374554	0.393661
0	H	0.0477896	0.859363	0.994166
0	H	0.151654	0.185985	0.986158
0	H	0.824826	0.9638	0.986805
0	H	0.343161	0.792141	0.650517
0	H	0.218498	0.550571	0.657493
0	H	0.45896	0.662414	0.655541
0	H	0.671619	0.213088	0.392466
0	H	0.797114	0.453595	0.389075
0	H	0.555907	0.342282	0.389164
0	H	0.0141017	0.125782	0.985659
0	H	0.885125	0.885087	0.985711
0	H	0.122966	0.994549	0.989656
0	H	0.334166	0.544687	0.720587
0	H	0.463728	0.786568	0.718502
0	H	0.222392	0.675487	0.718831
0	H	0.680674	0.460068	0.323317
0	H	0.550917	0.218121	0.326705
0	H	0.79254	0.329185	0.325747
0	H	0.000664798	0.87907	0.0584681
0	H	0.129294	0.1194	0.0602876
0	H	0.891797	0.0101239	0.0546288
0	H	0.287757	0.778151	0.490884
0	H	0.233863	0.510647	0.497487
0	H	0.500298	0.718285	0.499531
0	H	0.727067	0.226995	0.551752
0	H	0.782184	0.494237	0.546659
0	H	0.514379	0.286548	0.545486
0	H	0.958988	0.109421	0.820342
0	H	0.900287	0.844629	0.828097
0	H	0.162282	0.0497924	0.827984
0	H	0.39109	0.561297	0.875809
0	H	0.449018	0.827784	0.873903
0	H	0.182238	0.620337	0.879748
0	H	0.623826	0.443551	0.167847
0	H	0.566215	0.177623	0.169489
0	H	0.832662	0.38455	0.165741
0	H	0.0558937	0.895423	0.223154
0	H	0.114768	0.160565	0.216355
0	H	0.852259	0.954972	0.216414
0	H	0.49776	0.932662	0.256451
0	H	0.0789047	0.563225	0.25756
0	H	0.44737	0.512189	0.257263
0	H	0.517174	0.0723925	0.785867
0	H	0.937095	0.441813	0.789534
0	H	0.567996	0.492903	0.787467
0	H	0.165964	0.267275	0.592386
0	H	0.744662	0.895712	0.585079
0	H	0.114	0.844989	0.592336
0	H	0.184329	0.40668	0.126443
0	H	0.602136	0.77347	0.125754
0	H	0.235093	0.827008	0.118839
0	H	0.830916	0.598058	0.917605
0	H	0.412889	0.231601	0.918005
0	H	0.779996	0.178119	0.924447
0	H	0.849127	0.737553	0.452361
0	H	0.270407	0.109367	0.458619
0	H	0.901175	0.160084	0.451578
0	H	0.352575	0.973789	0.820114
0	H	0.0365365	0.377938	0.818871
0	H	0.633486	0.656027	0.814954
0	H	0.662244	0.0313462	0.223492
0	H	0.978812	0.627174	0.226525
0	H	0.381606	0.349233	0.228677
0	H	0.0192024	0.305514	0.150583
0	H	0.702519	0.70923	0.152395
0	H	0.299047	0.991779	0.148469
0	H	0.33082	0.366531	0.562265
0	H	0.645535	0.959802	0.560663
0	H	0.0489986	0.682486	0.561248
0	H	0.684423	0.638408	0.482668
0	H	0.369358	0.0452261	0.483503
0	H	0.966314	0.322672	0.483073
0	H	0.996018	0.699488	0.893595
0	H	0.312356	0.295754	0.891911
0	H	0.716012	0.0134441	0.895093
