#******************************************
#
# CIF file created by Zeo++
# Zeo++ is an open source package to
# analyze microporous materials
#
#*******************************************

_cell_length_a		20.0915(0)
_cell_length_b		5.55981(0)
_cell_length_c		25.5062(0)
_cell_angle_alpha		90(0)
_cell_angle_beta		113.468(0)
_cell_angle_gamma		90(0)

_symmetry_space_group_name_H-M		'P1'
_symmetry_Int_Tables_number		1
_symmetry_cell_setting		Monoclinic

loop_
_symmetry_equiv_pos_as_xyz
'+x,+y,+z'

loop_
_atom_site_label
_atom_site_type_symbol
_atom_site_fract_x
_atom_site_fract_y
_atom_site_fract_z
0	S	0.440213	0.313225	0.0422878
0	S	0.557006	0.815575	0.452933
0	S	0.556011	0.684956	0.951964
0	S	0.439276	0.1829	0.541368
0	C	0.491893	0.520196	0.0223864
0	C	0.504849	0.0216114	0.47224
0	C	0.504333	0.478014	0.97187
0	C	0.491401	0.976736	0.52204
0	F	0.26407	0.432729	0.426811
0	F	0.732909	0.932003	0.0691543
0	F	0.731998	0.56576	0.567365
0	F	0.26329	0.0663817	0.925064
0	S	0.432088	0.562562	0.20217
0	S	0.56578	0.0641897	0.293791
0	S	0.564118	0.435561	0.792077
0	S	0.43047	0.934207	0.70048
0	C	0.513483	0.705123	0.0610884
0	C	0.483865	0.208731	0.434106
0	C	0.482738	0.293092	0.933174
0	C	0.512345	0.789588	0.560139
0	H	0.545962	0.857772	0.0590093
0	H	0.451498	0.361224	0.436395
0	H	0.450268	0.140434	0.935261
0	H	0.544669	0.636949	0.55782
0	F	0.353559	0.667944	0.461089
0	F	0.644018	0.169739	0.0355851
0	F	0.642615	0.330187	0.533136
0	F	0.352201	0.828672	0.958682
0	C	0.48816	0.683492	0.10621
0	C	0.509768	0.187963	0.389361
0	C	0.508024	0.314757	0.888032
0	C	0.486415	0.810305	0.604871
0	H	0.500784	0.819997	0.139206
0	H	0.497661	0.324827	0.356518
0	H	0.495375	0.178279	0.855026
0	H	0.498489	0.673265	0.637684
0	F	0.252824	0.796852	0.401243
0	F	0.745268	0.295376	0.0953468
0	F	0.743421	0.201575	0.592973
0	F	0.250955	0.702971	0.898938
0	C	0.446973	0.482032	0.102349
0	C	0.550767	0.985855	0.393373
0	C	0.549235	0.516178	0.891895
0	C	0.445467	0.0123448	0.600886
0	C	0.411208	0.405405	0.137849
0	C	0.586583	0.908368	0.358124
0	C	0.584951	0.592588	0.856391
0	C	0.409627	0.0899138	0.636131
0	C	0.359673	0.231582	0.131681
0	C	0.637956	0.733577	0.364645
0	C	0.636534	0.766741	0.862556
0	C	0.358247	0.264683	0.629606
0	C	0.338287	0.226304	0.179434
0	C	0.65949	0.726942	0.317011
0	C	0.65788	0.771829	0.814787
0	C	0.3367	0.271306	0.677231
0	H	0.297894	0.100398	0.181055
0	H	0.69981	0.600373	0.315481
0	H	0.698266	0.897854	0.813158
0	H	0.296352	0.397757	0.678753
0	C	0.371549	0.395051	0.220686
0	C	0.626362	0.895275	0.275722
0	C	0.624644	0.603167	0.773552
0	C	0.369844	0.102964	0.718524
0	C	0.358126	0.445996	0.271453
0	C	0.639856	0.945967	0.225062
0	C	0.638043	0.552184	0.72277
0	C	0.35634	0.0522461	0.769175
0	C	0.381508	0.661216	0.302334
0	C	0.616442	0.161352	0.194302
0	C	0.614694	0.336941	0.691901
0	C	0.379768	0.836879	0.799942
0	H	0.414249	0.791059	0.290791
0	H	0.583812	0.291114	0.205996
0	H	0.581971	0.207051	0.703452
0	H	0.412382	0.707082	0.788242
0	C	0.362816	0.713324	0.34828
0	C	0.635095	0.21343	0.148371
0	C	0.633352	0.284892	0.645939
0	C	0.361108	0.784808	0.845871
0	H	0.381474	0.881326	0.372017
0	H	0.616494	0.381559	0.124722
0	H	0.614704	0.116892	0.622205
0	H	0.379697	0.616622	0.869502
0	C	0.320494	0.549895	0.363592
0	C	0.67732	0.04973	0.132974
0	C	0.675672	0.448363	0.630625
0	C	0.31889	0.948478	0.861271
0	C	0.29831	0.332307	0.333928
0	C	0.699544	0.832202	0.162623
0	C	0.697878	0.665897	0.660306
0	C	0.296639	0.165947	0.831612
0	H	0.265576	0.203238	0.345613
0	H	0.732164	0.702955	0.15089
0	H	0.730638	0.794954	0.64864
0	H	0.263997	0.295157	0.843331
0	C	0.317541	0.279532	0.288504
0	C	0.680389	0.779348	0.208092
0	C	0.6786	0.718711	0.705706
0	C	0.315753	0.21879	0.786123
0	H	0.300265	0.109696	0.26561
0	H	0.697701	0.609692	0.231068
0	H	0.695867	0.88857	0.728597
0	H	0.298391	0.388333	0.763115
0	C	0.298586	0.60926	0.411773
0	C	0.699014	0.108965	0.0846732
0	C	0.697566	0.389214	0.582433
0	C	0.297176	0.889297	0.909571
0	C	0.325874	0.0710031	0.081021
0	C	0.671378	0.573554	0.415363
0	C	0.670334	0.927224	0.913217
0	C	0.324809	0.424664	0.578878
0	H	0.30246	0.185294	0.0419251
0	H	0.695023	0.687768	0.454444
0	H	0.693743	0.812841	0.952307
0	H	0.301177	0.310434	0.539801
0	H	0.368642	0.959443	0.0754365
0	H	0.628584	0.462347	0.420978
0	H	0.627549	0.0386757	0.918808
0	H	0.367609	0.535891	0.573256
0	C	0.266325	0.902778	0.083266
0	C	0.730552	0.405179	0.412671
0	C	0.729841	0.095429	0.910972
0	C	0.265651	0.593039	0.581569
0	H	0.289157	0.781808	0.120764
0	H	0.707425	0.284846	0.375066
0	H	0.70704	0.216346	0.873469
0	H	0.288772	0.713399	0.619173
0	H	0.22305	0.00892571	0.088954
0	H	0.773842	0.511362	0.406972
0	H	0.773147	0.98923	0.905289
0	H	0.222348	0.486878	0.587271
0	C	0.233632	0.752525	0.0284299
0	C	0.763373	0.253955	0.467203
0	C	0.762562	0.245708	0.96581
0	C	0.232823	0.744269	0.527035
0	H	0.209701	0.873727	0.991102
0	H	0.788028	0.374187	0.504603
0	H	0.786497	0.12447	0.00313104
0	H	0.208175	0.624052	0.489636
0	H	0.277236	0.65038	0.0221422
0	H	0.719972	0.151737	0.473755
0	H	0.718948	0.347794	0.972099
0	H	0.276223	0.846515	0.520485
0	C	0.175075	0.577461	0.0293621
0	C	0.821239	0.0790779	0.465144
0	C	0.821118	0.420783	0.964877
0	C	0.174953	0.919131	0.529096
0	H	0.132556	0.676841	0.0377101
0	H	0.863904	0.178703	0.457039
0	H	0.863633	0.321354	0.956535
0	H	0.132289	0.819507	0.537198
0	H	0.19888	0.449035	0.0652313
0	H	0.796966	0.952913	0.428877
0	H	0.797314	0.54915	0.928996
0	H	0.199228	0.0453005	0.565366
0	C	0.141002	0.440679	0.972438
0	C	0.855041	0.939127	0.521467
0	C	0.855189	0.557574	0.0218017
0	C	0.141153	0.0590977	0.472775
0	H	0.1181	0.569867	0.936576
0	H	0.87841	0.066149	0.557722
0	H	0.878094	0.428341	0.0576554
0	H	0.117786	0.932102	0.436518
0	H	0.183683	0.341066	0.964395
0	H	0.812209	0.839411	0.529278
0	H	0.812502	0.657133	0.0298476
0	H	0.183982	0.158844	0.464964
0	C	0.0817171	0.265957	0.972056
0	C	0.913662	0.764549	0.520755
0	C	0.914478	0.732295	0.0221851
0	C	0.0825306	0.233669	0.473494
0	H	0.038453	0.366737	0.979108
0	H	0.956651	0.865183	0.513279
0	H	0.957737	0.631469	0.015139
0	H	0.0395405	0.133042	0.480968
0	H	0.104513	0.139143	0.00842263
0	H	0.890235	0.638381	0.484345
0	H	0.891685	0.859063	0.985809
0	H	0.105964	0.359828	0.50991
0	C	0.0487698	0.124822	0.915738
0	C	0.946859	0.622861	0.576858
0	C	0.947425	0.873431	0.0785068
0	C	0.0493373	0.375386	0.417395
0	H	0.025595	0.251093	0.879347
0	H	0.970284	0.748744	0.613308
0	H	0.970604	0.747101	0.114888
0	H	0.0259239	0.249532	0.380941
0	H	0.0919002	0.0244265	0.908401
0	H	0.903812	0.522384	0.584303
0	H	0.904289	0.97376	0.0858491
0	H	0.0923833	0.475912	0.409955
0	C	0.989931	0.949805	0.91621
0	C	0.00536353	0.448273	0.575771
0	C	0.00626496	0.0484471	0.0780352
0	C	0.990823	0.549935	0.418484
0	H	0.0134706	0.823036	0.952505
0	H	0.981559	0.321986	0.539399
0	H	0.982726	0.175173	0.0417302
0	H	0.0146153	0.676233	0.454856
0	H	0.947153	0.0500882	0.924044
0	H	0.0479794	0.548877	0.567771
0	H	0.0490374	0.948117	0.0702049
0	H	0.948204	0.44932	0.426468
0	C	0.956024	0.808314	0.860055
0	C	0.0393126	0.306758	0.631839
0	C	0.040174	0.18994	0.134193
0	C	0.956886	0.691479	0.362414
0	H	0.998814	0.70808	0.852246
0	H	0.996527	0.206691	0.639705
0	H	0.99738	0.29013	0.142006
0	H	0.999677	0.791576	0.35456
0	H	0.932286	0.934272	0.823678
0	H	0.0631369	0.432756	0.668202
0	H	0.0639131	0.0639246	0.170558
0	H	0.933079	0.565505	0.32605
0	C	0.897776	0.632547	0.861339
0	C	0.0973961	0.131155	0.630332
0	C	0.0984175	0.365694	0.132893
0	C	0.898795	0.867051	0.363918
0	H	0.92194	0.50606	0.897625
0	H	0.0731256	0.00502703	0.593988
0	H	0.0742663	0.492133	0.0966066
0	H	0.923061	0.993223	0.400257
0	H	0.855122	0.731357	0.869623
0	H	0.140037	0.230036	0.622038
0	H	0.141077	0.266826	0.124633
0	H	0.856156	0.768185	0.372215
0	C	0.863466	0.490346	0.805321
0	C	0.131576	0.988992	0.686322
0	C	0.132737	0.507955	0.188929
0	C	0.864613	0.00916428	0.30792
0	H	0.906348	0.395538	0.7964
0	H	0.0886063	0.894634	0.695214
0	H	0.0898462	0.602696	0.197846
0	H	0.907576	0.103575	0.299027
0	H	0.837468	0.615554	0.769085
0	H	0.157616	0.11408	0.722569
0	H	0.158736	0.382695	0.225155
0	H	0.838595	0.884055	0.271677
0	C	0.807641	0.308315	0.807442
0	C	0.187288	0.806907	0.684071
0	C	0.188555	0.689969	0.186793
0	C	0.808879	0.191182	0.31016
0	H	0.782176	0.21298	0.766678
0	H	0.212769	0.71134	0.724779
0	H	0.214017	0.785383	0.227549
0	H	0.783392	0.28669	0.269443
0	H	0.764258	0.39615	0.816238
0	H	0.230613	0.894963	0.675239
0	H	0.231933	0.602072	0.178006
0	H	0.765557	0.103118	0.318992
0	H	0.832683	0.173291	0.840922
0	H	0.162113	0.672363	0.650505
0	H	0.163505	0.824898	0.153292
0	H	0.834045	0.325776	0.343721
