#******************************************
#
# CIF file created by Zeo++
# Zeo++ is an open source package to
# analyze microporous materials
#
#*******************************************

_cell_length_a		8.96993(0)
_cell_length_b		16.9637(0)
_cell_length_c		6.22219(0)
_cell_angle_alpha		90(0)
_cell_angle_beta		110.436(0)
_cell_angle_gamma		90(0)

_symmetry_space_group_name_H-M		'P1'
_symmetry_Int_Tables_number		1
_symmetry_cell_setting		Monoclinic

loop_
_symmetry_equiv_pos_as_xyz
'+x,+y,+z'

loop_
_atom_site_label
_atom_site_type_symbol
_atom_site_fract_x
_atom_site_fract_y
_atom_site_fract_z
0	C	0.35666	0.909204	0.0998949
0	C	0.71379	0.408583	0.907283
0	C	0.190077	0.942199	0.0686762
0	C	0.883169	0.438086	0.940997
0	C	0.150042	0.00131528	0.867932
0	C	0.925475	0.498309	0.139048
0	C	0.299123	0.00721623	0.798601
0	C	0.776666	0.506842	0.208196
0	C	0.437768	0.975306	0.00868456
0	C	0.636451	0.476567	0.997501
0	C	0.519744	0.0351255	0.195767
0	C	0.557794	0.5371	0.810863
0	C	0.63312	0.0946783	0.143789
0	C	0.445494	0.597597	0.862003
0	C	0.593181	0.167484	0.189059
0	C	0.487097	0.670064	0.816782
0	C	0.455252	0.163798	0.268829
0	C	0.62526	0.665362	0.737855
0	C	0.455023	0.883876	0.345742
0	C	0.615793	0.384203	0.660544
0	C	0.32518	0.0876896	0.711562
0	C	0.754828	0.588302	0.293312
0	C	0.3653	0.843672	0.482422
0	C	0.704454	0.342535	0.524629
0	C	0.761783	0.0668766	0.0598653
0	C	0.315728	0.570981	0.945377
0	C	0.92146	0.0717101	0.258293
0	C	0.156073	0.577793	0.747621
0	C	0.76126	0.114068	0.849828
0	C	0.318474	0.617872	0.157095
0	O	0.578203	0.836754	0.323494
0	O	0.489166	0.338885	0.679495
0	O	0.52468	0.950405	0.495999
0	O	0.551189	0.451556	0.511144
0	O	0.617327	0.99865	0.40677
0	O	0.459958	0.501225	0.59894
0	O	0.4062	0.0849686	0.257723
0	O	0.673276	0.586282	0.751018
0	O	0.384143	0.212893	0.33469
0	O	0.6972	0.713895	0.671432
0	H	0.34427	0.855899	0.988833
0	H	0.721186	0.355596	0.0178276
0	H	0.191234	0.973401	0.225947
0	H	0.885933	0.467414	0.783338
0	H	0.101046	0.8948	0.0353483
0	H	0.968851	0.389049	0.978328
0	H	0.12072	0.059529	0.922653
0	H	0.956764	0.555591	0.0813386
0	H	0.0453306	0.982496	0.721772
0	H	0.0294834	0.479362	0.285948
0	H	0.285066	0.964014	0.654407
0	H	0.787679	0.463917	0.351937
0	H	0.533035	0.949693	0.951395
0	H	0.539524	0.452738	0.0545244
0	H	0.644556	0.223288	0.168933
0	H	0.436797	0.726269	0.836367
0	H	0.438224	0.0899353	0.678856
0	H	0.641744	0.592777	0.325155
0	H	0.324361	0.135864	0.8277
0	H	0.758323	0.635489	0.175491
0	H	0.232573	0.101423	0.545847
0	H	0.847817	0.601674	0.458773
0	H	0.446214	0.810373	0.628441
0	H	0.621653	0.31099	0.376487
0	H	0.27518	0.8028	0.375204
0	H	0.790183	0.299724	0.630877
0	H	0.303553	0.887731	0.553483
0	H	0.77074	0.38542	0.457294
0	H	0.73929	0.00321903	0.0065116
0	H	0.335481	0.507	0.996791
0	H	0.0168089	0.0441752	0.211367
0	H	0.059701	0.55144	0.794524
0	H	0.916577	0.0408288	0.410872
0	H	0.159082	0.546967	0.593889
0	H	0.957616	0.132761	0.307015
0	H	0.123194	0.639297	0.70088
0	H	0.869643	0.102899	0.810891
0	H	0.209707	0.607738	0.195875
0	H	0.753892	0.177675	0.873572
0	H	0.328893	0.68145	0.135933
0	H	0.660019	0.0965285	0.696404
0	H	0.418748	0.598982	0.30987
0	H	0.641307	0.809826	0.469965
0	H	0.428159	0.311278	0.533604
