#******************************************
#
# CIF file created by Zeo++
# Zeo++ is an open source package to
# analyze microporous materials
#
#*******************************************

_cell_length_a		12.4567(0)
_cell_length_b		12.1559(0)
_cell_length_c		21.7139(0)
_cell_angle_alpha		90(0)
_cell_angle_beta		90(0)
_cell_angle_gamma		90(0)

_symmetry_space_group_name_H-M		'P1'
_symmetry_Int_Tables_number		1
_symmetry_cell_setting		Monoclinic

loop_
_symmetry_equiv_pos_as_xyz
'+x,+y,+z'

loop_
_atom_site_label
_atom_site_type_symbol
_atom_site_fract_x
_atom_site_fract_y
_atom_site_fract_z
0	Br	0.682156	0.76041	0.911016
0	Br	0.846853	0.222795	0.408428
0	Br	0.347781	0.268529	0.600377
0	Br	0.184422	0.742061	0.106886
0	Si	0.940764	0.677417	0.801437
0	Si	0.576525	0.308581	0.296862
0	Si	0.0861787	0.179842	0.707023
0	Si	0.446744	0.811472	0.219983
0	O	0.673583	0.937946	0.0580647
0	O	0.856758	0.0676033	0.540613
0	O	0.356833	0.441056	0.454996
0	O	0.167949	0.562666	0.97742
0	O	0.770013	0.564737	0.00215063
0	O	0.726005	0.436823	0.461897
0	O	0.259083	0.0642894	0.516608
0	O	0.301842	0.943381	0.0335203
0	O	0.957926	0.741283	0.868499
0	O	0.549641	0.239116	0.360559
0	O	0.0666815	0.245909	0.641027
0	O	0.468405	0.746162	0.153982
0	O	0.0499838	0.962986	0.888264
0	O	0.463399	0.0132508	0.389355
0	O	0.977011	0.466378	0.620859
0	O	0.556782	0.520209	0.130563
0	O	0.194038	0.850571	0.898241
0	O	0.32056	0.12874	0.383583
0	O	0.832234	0.358552	0.602234
0	O	0.70017	0.635099	0.134735
0	C	0.931324	0.149384	0.117611
0	C	0.611335	0.844174	0.61249
0	C	0.10363	0.655819	0.39533
0	C	0.417908	0.345579	0.905267
0	H	0.957685	0.141365	0.166216
0	H	0.588458	0.852204	0.661664
0	H	0.080295	0.650611	0.346094
0	H	0.439652	0.353456	0.855923
0	H	0.844646	0.128768	0.118134
0	H	0.696986	0.868378	0.610574
0	H	0.190647	0.63601	0.395977
0	H	0.332008	0.368562	0.907804
0	C	0.947658	0.268558	0.0961245
0	C	0.597742	0.724025	0.592139
0	C	0.0852368	0.773507	0.418739
0	C	0.433316	0.225778	0.925852
0	H	0.926153	0.324977	0.134285
0	H	0.623189	0.669134	0.630181
0	H	0.107735	0.832285	0.381916
0	H	0.407287	0.170269	0.888232
0	H	0.0339886	0.283097	0.0868067
0	H	0.511417	0.706381	0.584538
0	H	0.998373	0.786697	0.427076
0	H	0.520011	0.209078	0.932693
0	C	0.880894	0.298252	0.0394517
0	C	0.662118	0.695765	0.534311
0	C	0.149382	0.800391	0.476832
0	C	0.370826	0.197475	0.984303
0	H	0.891681	0.387226	0.0294026
0	H	0.654298	0.606159	0.525007
0	H	0.138055	0.888761	0.488208
0	H	0.379888	0.107972	0.99399
0	H	0.794194	0.289284	0.0505307
0	H	0.74886	0.709417	0.543403
0	H	0.236559	0.791905	0.466995
0	H	0.283628	0.209321	0.97589
0	C	0.905237	0.232594	0.979895
0	C	0.630823	0.758395	0.47479
0	C	0.122257	0.731615	0.534867
0	C	0.402899	0.261579	0.0431847
0	C	0.869794	0.109815	0.982575
0	C	0.66079	0.882758	0.475542
0	C	0.157677	0.608999	0.530713
0	C	0.370646	0.38538	0.0423516
0	H	0.872946	0.0795557	0.933634
0	H	0.651866	0.911325	0.426488
0	H	0.151625	0.576103	0.579069
0	H	0.380675	0.414828	0.0911892
0	C	0.754269	0.0930283	0.00624492
0	C	0.777352	0.905744	0.495505
0	C	0.274467	0.592978	0.508971
0	C	0.252931	0.40503	0.023517
0	H	0.73157	0.157489	0.0402885
0	H	0.805581	0.844441	0.530049
0	H	0.299701	0.65943	0.476783
0	H	0.22498	0.341774	0.990027
0	H	0.694	0.100446	0.969102
0	H	0.834487	0.898894	0.456742
0	H	0.332417	0.597336	0.547437
0	H	0.197274	0.398147	0.0629745
0	C	0.75206	0.98126	0.035538
0	C	0.777515	0.0193182	0.522699
0	C	0.277738	0.483068	0.477511
0	C	0.249079	0.517452	0.995042
0	C	0.864914	0.927561	0.0337346
0	C	0.661915	0.0666804	0.524793
0	C	0.164977	0.429234	0.477315
0	C	0.363262	0.56786	0.991147
0	C	0.9408	0.0273752	0.0196729
0	C	0.589579	0.96302	0.51393
0	C	0.0885875	0.528762	0.491018
0	C	0.438798	0.466759	0.00286711
0	H	0.00646766	0.000250207	0.987808
0	H	0.520033	0.986029	0.483624
0	H	0.0207874	0.500732	0.521039
0	H	0.507916	0.492882	0.0326102
0	C	0.993611	0.0714194	0.0773051
0	C	0.543187	0.918683	0.573288
0	C	0.0395997	0.575069	0.432852
0	C	0.485639	0.421759	0.943771
0	C	0.822292	0.647404	0.995598
0	C	0.683355	0.349846	0.472193
0	C	0.207093	0.14781	0.519204
0	C	0.344183	0.854191	0.0326717
0	C	0.942153	0.656954	0.00142905
0	C	0.567437	0.332673	0.489401
0	C	0.0877574	0.157105	0.51018
0	C	0.461606	0.833286	0.0215269
0	H	0.984325	0.590754	0.975296
0	H	0.514547	0.394306	0.4662
0	H	0.0433718	0.0921421	0.536049
0	H	0.512277	0.896058	0.0454345
0	H	0.968084	0.643015	0.0497097
0	H	0.55465	0.347224	0.539178
0	H	0.066028	0.141515	0.461429
0	H	0.481409	0.8438	0.972139
0	C	0.972537	0.772952	0.979193
0	C	0.541378	0.213242	0.471322
0	C	0.0560157	0.273911	0.530251
0	C	0.483811	0.715339	0.0436521
0	H	0.0323156	0.809977	0.011741
0	H	0.486304	0.174928	0.505941
0	H	0.997871	0.309547	0.496296
0	H	0.540299	0.673121	0.0112101
0	C	0.867829	0.843122	0.979482
0	C	0.650289	0.149836	0.4704
0	C	0.160494	0.344298	0.531214
0	C	0.373858	0.654124	0.044114
0	H	0.864062	0.88991	0.934996
0	H	0.654825	0.103113	0.425923
0	H	0.162485	0.390889	0.575866
0	H	0.36677	0.60977	0.0892688
0	C	0.773967	0.761105	0.984383
0	C	0.739098	0.238172	0.473568
0	C	0.254794	0.262597	0.527607
0	C	0.286613	0.743716	0.038275
0	H	0.718055	0.780619	0.0234464
0	H	0.786286	0.233164	0.517833
0	H	0.309614	0.279859	0.487667
0	H	0.235589	0.731932	0.995994
0	C	0.0288979	0.763781	0.915787
0	C	0.48131	0.21602	0.408812
0	C	0.997088	0.267278	0.592962
0	C	0.539884	0.721702	0.107302
0	H	0.0905969	0.695267	0.917593
0	H	0.41746	0.28257	0.410153
0	H	0.934817	0.199289	0.591375
0	H	0.603343	0.788573	0.106347
0	C	0.0938128	0.0421834	0.0919441
0	C	0.443264	0.944474	0.59046
0	C	0.940934	0.545323	0.415333
0	C	0.584985	0.448775	0.92607
0	H	0.135181	0.0703245	0.132641
0	H	0.406235	0.915648	0.632306
0	H	0.902236	0.575151	0.374138
0	H	0.621921	0.419586	0.884274
0	H	0.14386	0.988059	0.0645496
0	H	0.38981	0.996501	0.563891
0	H	0.889528	0.488915	0.440399
0	H	0.637984	0.502097	0.952104
0	C	0.88593	0.872168	0.0956927
0	C	0.643965	0.122769	0.586887
0	C	0.145912	0.374669	0.414956
0	C	0.37825	0.620914	0.927969
0	H	0.87268	0.92875	0.134392
0	H	0.661664	0.0677067	0.625634
0	H	0.160976	0.431655	0.376645
0	H	0.3614	0.563012	0.890381
0	H	0.969279	0.843708	0.0993977
0	H	0.560064	0.148798	0.592361
0	H	0.0625169	0.346766	0.410123
0	H	0.461129	0.649258	0.921458
0	H	0.832557	0.801513	0.103346
0	H	0.695823	0.195292	0.59251
0	H	0.199051	0.303687	0.407731
0	H	0.324087	0.691329	0.921236
0	C	0.024872	0.238916	0.962837
0	C	0.51048	0.745974	0.461096
0	C	0.0017421	0.737131	0.549824
0	C	0.523837	0.251472	0.0557478
0	H	0.0498928	0.324126	0.955017
0	H	0.489126	0.659595	0.453404
0	H	0.976598	0.821859	0.559095
0	H	0.54687	0.165529	0.0630908
0	H	0.0420505	0.192667	0.920385
0	H	0.487441	0.791922	0.419212
0	H	0.982134	0.687984	0.590954
0	H	0.547143	0.297777	0.097463
0	H	0.0760709	0.204406	0.99906
0	H	0.460618	0.777527	0.498695
0	H	0.95269	0.705517	0.511843
0	H	0.572092	0.284082	0.0177198
0	C	0.839895	0.28799	0.927621
0	C	0.694587	0.704386	0.421508
0	C	0.184767	0.783968	0.589203
0	C	0.341563	0.207136	0.0973117
0	H	0.863533	0.374222	0.92162
0	H	0.679166	0.615296	0.419245
0	H	0.160563	0.869808	0.596489
0	H	0.358099	0.11838	0.0994235
0	H	0.753621	0.288203	0.937337
0	H	0.781374	0.713644	0.427219
0	H	0.271478	0.784943	0.580928
0	H	0.254504	0.215416	0.0924952
0	H	0.852264	0.246956	0.883351
0	H	0.672491	0.738997	0.376728
0	H	0.170296	0.740194	0.632457
0	H	0.364962	0.242322	0.141774
0	C	0.0854886	0.872795	0.898929
0	C	0.427339	0.104883	0.393364
0	C	0.941068	0.377448	0.607683
0	C	0.593434	0.6114	0.125013
0	C	0.266446	0.94167	0.885863
0	C	0.247862	0.0379868	0.371384
0	C	0.760557	0.451416	0.611252
0	C	0.772089	0.544163	0.148089
0	H	0.339766	0.900739	0.870276
0	H	0.177855	0.0786352	0.35126
0	H	0.685521	0.412983	0.626033
0	H	0.841814	0.584868	0.168556
0	H	0.278263	0.987036	0.929106
0	H	0.229726	0.997816	0.415487
0	H	0.752382	0.494002	0.566813
0	H	0.791197	0.503276	0.104339
0	H	0.233085	0.99562	0.850142
0	H	0.284285	0.978777	0.3391
0	H	0.792116	0.507288	0.64653
0	H	0.734574	0.485899	0.180373
0	C	0.0749056	0.628534	0.775389
0	C	0.447517	0.361172	0.265253
0	C	0.952861	0.129514	0.733637
0	C	0.57822	0.861185	0.249582
0	H	0.106135	0.562436	0.805328
0	H	0.410699	0.422437	0.296251
0	H	0.921476	0.0642397	0.703125
0	H	0.614593	0.922502	0.218471
0	H	0.134729	0.694849	0.774027
0	H	0.388741	0.29526	0.257513
0	H	0.892713	0.195412	0.73606
0	H	0.636089	0.793946	0.255805
0	H	0.0672433	0.594215	0.728399
0	H	0.463409	0.402257	0.220639
0	H	0.961383	0.0937107	0.780189
0	H	0.565388	0.901322	0.294722
0	C	0.847728	0.560025	0.814995
0	C	0.668775	0.423373	0.317068
0	C	0.178309	0.0625115	0.691401
0	C	0.354492	0.928363	0.203369
0	H	0.873687	0.509846	0.854487
0	H	0.641995	0.467382	0.358768
0	H	0.151637	0.0143149	0.651266
0	H	0.377393	0.970455	0.160389
0	H	0.846194	0.506599	0.77401
0	H	0.671598	0.483378	0.279125
0	H	0.179738	0.00719353	0.731575
0	H	0.358212	0.98908	0.24096
0	H	0.765499	0.588307	0.824575
0	H	0.750741	0.393757	0.326259
0	H	0.260719	0.0904486	0.682003
0	H	0.270907	0.900846	0.197937
0	C	0.884191	0.777804	0.741522
0	C	0.640616	0.209361	0.238936
0	C	0.144386	0.279087	0.767036
0	C	0.385562	0.709717	0.27761
0	C	0.846409	0.711279	0.684825
0	C	0.684185	0.276969	0.184157
0	C	0.183483	0.21124	0.822947
0	C	0.345626	0.774497	0.334306
0	H	0.814114	0.766845	0.649522
0	H	0.728299	0.223686	0.152141
0	H	0.214178	0.266036	0.859056
0	H	0.301815	0.719946	0.365895
0	H	0.782638	0.652678	0.696364
0	H	0.739381	0.342429	0.198721
0	H	0.248841	0.154975	0.810727
0	H	0.291224	0.842175	0.321953
0	H	0.912606	0.665131	0.663025
0	H	0.61888	0.316318	0.157439
0	H	0.118491	0.162423	0.843953
0	H	0.412735	0.810968	0.360831
0	C	0.974564	0.856933	0.721698
0	C	0.55283	0.129934	0.216061
0	C	0.0540921	0.357486	0.787861
0	C	0.473438	0.628055	0.297759
0	H	0.943108	0.922532	0.69174
0	H	0.587268	0.0643397	0.187338
0	H	0.0861049	0.423214	0.817575
0	H	0.439463	0.561584	0.32611
0	H	0.0380963	0.815414	0.695564
0	H	0.491906	0.171346	0.187821
0	H	0.991543	0.315584	0.814537
0	H	0.536337	0.667042	0.325593
0	H	0.0120936	0.897961	0.761328
0	H	0.51126	0.0891679	0.254441
0	H	0.0152339	0.398515	0.748633
0	H	0.512394	0.58837	0.258141
0	C	0.788985	0.844723	0.767026
0	C	0.733295	0.142777	0.267578
0	C	0.23883	0.347254	0.741631
0	C	0.290904	0.645609	0.249265
0	H	0.761948	0.90624	0.733537
0	H	0.761668	0.0791062	0.235768
0	H	0.264598	0.409495	0.775048
0	H	0.262664	0.581274	0.280696
0	H	0.810994	0.889249	0.809212
0	H	0.708288	0.100876	0.310029
0	H	0.216545	0.391137	0.69929
0	H	0.314097	0.604737	0.206146
0	H	0.719951	0.792256	0.777665
0	H	0.80206	0.195354	0.278572
0	H	0.308804	0.295806	0.731523
0	H	0.222557	0.699396	0.239343
