#******************************************
#
# CIF file created by Zeo++
# Zeo++ is an open source package to
# analyze microporous materials
#
#*******************************************

_cell_length_a		23.8027(0)
_cell_length_b		23.6535(0)
_cell_length_c		6.84353(0)
_cell_angle_alpha		90(0)
_cell_angle_beta		90(0)
_cell_angle_gamma		120.929(0)

_symmetry_space_group_name_H-M		'P1'
_symmetry_Int_Tables_number		1
_symmetry_cell_setting		Monoclinic

loop_
_symmetry_equiv_pos_as_xyz
'+x,+y,+z'

loop_
_atom_site_label
_atom_site_type_symbol
_atom_site_fract_x
_atom_site_fract_y
_atom_site_fract_z
0	O	0.727268	0.0230367	0.0386694
0	O	0.0204831	0.722776	0.0931863
0	O	0.315819	0.315896	0.0644373
0	O	0.393726	0.355177	0.395714
0	O	0.685622	0.0532222	0.381124
0	O	0.981536	0.644313	0.421914
0	O	0.0591633	0.687576	0.752207
0	O	0.354443	0.392011	0.729305
0	O	0.647443	0.978205	0.718157
0	H	0.692697	0.00825913	0.932845
0	H	0.0329131	0.702769	0.982009
0	H	0.336319	0.349026	0.954096
0	H	0.360373	0.341918	0.286778
0	H	0.699534	0.0348206	0.269133
0	H	0.00347538	0.678486	0.315161
0	H	0.0248089	0.673419	0.645755
0	H	0.367565	0.372033	0.62017
0	H	0.667236	0.0106743	0.606011
0	O	0.725444	0.731325	0.733212
0	O	0.312499	0.00927384	0.748748
0	O	0.0342669	0.326383	0.745366
0	O	0.383856	0.0607882	0.0769772
0	O	0.981757	0.342728	0.0785569
0	O	0.707096	0.663035	0.0746773
0	O	0.052208	0.396695	0.412256
0	O	0.652196	0.676968	0.409254
0	O	0.367025	0.992943	0.415582
0	H	0.69931	0.700487	0.622075
0	H	0.339626	0.0109159	0.631966
0	H	0.031877	0.351818	0.629138
0	H	0.358265	0.0315673	0.962194
0	H	0.0102476	0.346447	0.962957
0	H	0.706845	0.689124	0.956915
0	H	0.0265491	0.368164	0.296521
0	H	0.679412	0.680215	0.29086
0	H	0.364337	0.018105	0.299036
0	C	0.711076	0.913054	0.977901
0	C	0.12954	0.816947	0.0215056
0	C	0.224889	0.334627	0.00263888
0	C	0.374143	0.244275	0.328803
0	C	0.796362	0.147894	0.331134
0	C	0.891706	0.663735	0.353123
0	C	0.0428128	0.578466	0.679225
0	C	0.4657	0.484896	0.669782
0	C	0.556477	0.997372	0.669126
0	H	0.684152	0.914715	0.844071
0	H	0.124744	0.787502	0.885807
0	H	0.253902	0.359428	0.866164
0	H	0.351034	0.249351	0.190665
0	H	0.793908	0.118822	0.196932
0	H	0.922795	0.690232	0.220958
0	H	0.0173182	0.582227	0.544586
0	H	0.461343	0.455567	0.534239
0	H	0.585901	0.0237784	0.534691
0	C	0.658924	0.859532	0.110941
0	C	0.182703	0.81647	0.146732
0	C	0.227997	0.389516	0.13014
0	C	0.317732	0.190387	0.450033
0	C	0.847879	0.147848	0.465742
0	C	0.893726	0.717424	0.483808
0	C	0.989001	0.524414	0.806447
0	C	0.51741	0.483166	0.799278
0	C	0.559171	0.0507257	0.803102
0	H	0.614578	0.863059	0.122788
0	H	0.177362	0.767208	0.150627
0	H	0.277763	0.433607	0.134095
0	H	0.274542	0.196299	0.452341
0	H	0.842687	0.0988513	0.476041
0	H	0.943624	0.760863	0.497616
0	H	0.944971	0.528683	0.814447
0	H	0.510654	0.433379	0.807095
0	H	0.60889	0.0942259	0.815234
0	H	0.677675	0.861967	0.260487
0	H	0.18172	0.831151	0.299165
0	H	0.213291	0.373265	0.282488
0	H	0.33203	0.190027	0.60305
0	H	0.845247	0.163791	0.615868
0	H	0.875581	0.698969	0.63317
0	H	0.00601686	0.525511	0.95752
0	H	0.516403	0.499183	0.950385
0	H	0.542089	0.0318009	0.952612
0	C	0.644487	0.794648	0.00724242
0	C	0.247218	0.86788	0.0419566
0	C	0.178238	0.404341	0.0288254
0	C	0.30275	0.126087	0.341673
0	C	0.913696	0.199104	0.366297
0	C	0.846677	0.734716	0.376411
0	C	0.97454	0.459972	0.699982
0	C	0.582937	0.533165	0.696064
0	C	0.511037	0.0678101	0.701339
0	H	0.60954	0.782806	0.886445
0	H	0.258802	0.844357	0.922433
0	H	0.202094	0.439836	0.908758
0	H	0.270891	0.117514	0.214557
0	H	0.926399	0.175624	0.249425
0	H	0.872878	0.770977	0.259743
0	H	0.939352	0.44828	0.580167
0	H	0.593707	0.508908	0.5768
0	H	0.536139	0.103851	0.583253
0	H	0.62177	0.752308	0.109597
0	H	0.289024	0.888249	0.145682
0	H	0.16015	0.42711	0.133941
0	H	0.276294	0.0822814	0.437335
0	H	0.954398	0.219116	0.473827
0	H	0.827912	0.75746	0.479553
0	H	0.951968	0.417573	0.80245
0	H	0.624413	0.552093	0.800569
0	H	0.493294	0.0907605	0.807034
0	C	0.711258	0.807824	0.931394
0	C	0.235734	0.922412	0.964738
0	C	0.121932	0.337549	0.952923
0	C	0.369839	0.137037	0.277628
0	C	0.903136	0.253788	0.284527
0	C	0.790599	0.669223	0.292925
0	C	0.0409829	0.472691	0.622986
0	C	0.573652	0.589146	0.618429
0	C	0.45429	0.00200995	0.62137
0	H	0.73086	0.785633	0.0345609
0	H	0.260862	0.966208	0.0626163
0	H	0.0792148	0.319303	0.0535761
0	H	0.385506	0.111733	0.382775
0	H	0.926664	0.297228	0.384083
0	H	0.746723	0.650624	0.388712
0	H	0.0596408	0.448603	0.722187
0	H	0.599013	0.63242	0.718114
0	H	0.411469	0.983437	0.721631
0	C	0.719089	0.788593	0.721956
0	C	0.252115	0.946803	0.751308
0	C	0.0962082	0.329498	0.74138
0	C	0.380494	0.119752	0.0685843
0	C	0.922635	0.279117	0.0729379
0	C	0.768033	0.664146	0.0786561
0	C	0.0485592	0.455554	0.41059
0	C	0.59186	0.614449	0.406308
0	C	0.428969	0.996029	0.410015
0	H	0.676749	0.776503	0.626539
0	H	0.257758	0.912265	0.655745
0	H	0.129818	0.370721	0.644734
0	H	0.340523	0.110912	0.967043
0	H	0.931621	0.246091	0.980669
0	H	0.803865	0.705985	0.987678
0	H	0.00710574	0.446626	0.315612
0	H	0.598577	0.580534	0.311051
0	H	0.462726	0.0381425	0.316323
0	C	0.784868	0.849272	0.636644
0	C	0.193493	0.95571	0.677959
0	C	0.085756	0.261215	0.663254
0	C	0.449078	0.179495	0.995758
0	C	0.864307	0.286236	0.986904
0	C	0.757076	0.596009	0.997322
0	C	0.115809	0.515904	0.331603
0	C	0.534213	0.623969	0.327261
0	C	0.41865	0.928481	0.325545
0	C	0.780195	0.907606	0.721378
0	C	0.134673	0.892908	0.768619
0	C	0.146933	0.263674	0.752304
0	C	0.446034	0.238427	0.0831667
0	C	0.804653	0.223663	0.0741658
0	C	0.817059	0.597007	0.0901766
0	C	0.11249	0.574262	0.422757
0	C	0.474186	0.562262	0.417275
0	C	0.479484	0.929943	0.412875
0	H	0.742547	0.910646	0.630425
0	H	0.128198	0.850661	0.676045
0	H	0.189478	0.299454	0.659456
0	H	0.411348	0.244764	0.987134
0	H	0.799035	0.181089	0.985235
0	H	0.860776	0.634044	0.00357751
0	H	0.0757338	0.579147	0.332507
0	H	0.466612	0.519409	0.325737
0	H	0.52246	0.966896	0.323662
0	C	0.753831	0.88361	0.928506
0	C	0.160734	0.890387	0.97196
0	C	0.15137	0.292813	0.956392
0	C	0.415198	0.212504	0.285044
0	C	0.82805	0.221406	0.281737
0	C	0.818927	0.623443	0.296735
0	C	0.0848171	0.548356	0.627668
0	C	0.498802	0.558685	0.621795
0	C	0.483098	0.956614	0.620055
0	H	0.794543	0.899689	0.0352073
0	H	0.147807	0.916432	0.0821094
0	H	0.124914	0.253267	0.0669307
0	H	0.453418	0.225424	0.398417
0	H	0.813422	0.247155	0.387864
0	H	0.790434	0.582561	0.401525
0	H	0.124812	0.562588	0.735677
0	H	0.486203	0.585126	0.73144
0	H	0.455979	0.915948	0.726659
0	C	0.7602	0.985654	0.0298884
0	C	0.0587955	0.794349	0.083305
0	C	0.244891	0.284412	0.0613609
0	C	0.424248	0.31544	0.391865
0	C	0.724553	0.124863	0.38107
0	C	0.910628	0.612475	0.408553
0	C	0.0921274	0.650232	0.738627
0	C	0.394799	0.463533	0.726527
0	C	0.57644	0.946523	0.719456
0	C	0.811432	0.0188648	0.859879
0	C	0.0249802	0.813269	0.919524
0	C	0.222297	0.22963	0.899686
0	C	0.479538	0.349103	0.232556
0	C	0.693067	0.145586	0.214682
0	C	0.890711	0.560916	0.238292
0	C	0.144134	0.684601	0.570961
0	C	0.363116	0.48525	0.56358
0	C	0.55337	0.892957	0.553926
0	H	0.853861	0.0645008	0.917382
0	H	0.981421	0.811258	0.983626
0	H	0.221604	0.186637	0.965397
0	H	0.522127	0.39225	0.300228
0	H	0.649881	0.145026	0.276155
0	H	0.889708	0.516965	0.297442
0	H	0.186597	0.729563	0.631599
0	H	0.320446	0.485016	0.627998
0	H	0.551318	0.848853	0.616351
0	H	0.788236	0.0351693	0.750529
0	H	0.00574854	0.772817	0.810528
0	H	0.262152	0.249219	0.789525
0	H	0.460875	0.369601	0.121556
0	H	0.673337	0.105034	0.105818
0	H	0.931903	0.582899	0.132505
0	H	0.121716	0.702119	0.462783
0	H	0.342569	0.44509	0.453417
0	H	0.593715	0.912764	0.445164
0	C	0.836777	0.978522	0.751757
0	C	0.065624	0.879777	0.808911
0	C	0.156481	0.205328	0.790674
0	C	0.503896	0.30779	0.124743
0	C	0.735605	0.211624	0.104121
0	C	0.826103	0.538149	0.123937
0	C	0.169424	0.644558	0.460175
0	C	0.405978	0.551688	0.454871
0	C	0.48844	0.870901	0.442661
0	H	0.858335	0.00233247	0.610279
0	H	0.0403657	0.877554	0.671119
0	H	0.156908	0.18153	0.652208
0	H	0.528332	0.333009	0.987408
0	H	0.712355	0.20961	0.962495
0	H	0.828061	0.516173	0.983502
0	H	0.192181	0.669712	0.321259
0	H	0.381822	0.550878	0.316248
0	H	0.489802	0.849361	0.300734
0	H	0.876793	0.979268	0.835904
0	H	0.0677394	0.920343	0.895037
0	H	0.11537	0.166927	0.877451
0	H	0.541517	0.305476	0.213181
0	H	0.737249	0.252601	0.186706
0	H	0.784024	0.498654	0.204901
0	H	0.20853	0.643856	0.545247
0	H	0.409279	0.592758	0.541351
0	H	0.446551	0.831195	0.523666
0	C	0.78245	0.847703	0.413449
0	C	0.191169	0.954793	0.454964
0	C	0.0870858	0.261654	0.439961
0	C	0.450792	0.181093	0.772474
0	C	0.865025	0.283987	0.763909
0	C	0.760033	0.598036	0.77448
0	C	0.114672	0.516791	0.108442
0	C	0.533173	0.621947	0.104109
0	C	0.420689	0.93082	0.102456
0	H	0.740433	0.850086	0.356358
0	H	0.193095	0.912946	0.393016
0	H	0.132369	0.303696	0.381295
0	H	0.409111	0.182656	0.709982
0	H	0.860233	0.237825	0.70949
0	H	0.806232	0.640323	0.719922
0	H	0.0714246	0.516787	0.0510971
0	H	0.529633	0.576737	0.0467499
0	H	0.467271	0.972123	0.0467346
0	H	0.777828	0.802082	0.356634
0	H	0.233089	0.999876	0.394145
0	H	0.0462023	0.265163	0.379832
0	H	0.44872	0.136936	0.712879
0	H	0.911106	0.324535	0.704707
0	H	0.720096	0.602725	0.712322
0	H	0.113322	0.473144	0.0475201
0	H	0.578177	0.663795	0.0434828
0	H	0.381399	0.937118	0.0430113
0	H	0.826995	0.889149	0.351073
0	H	0.146289	0.951774	0.401557
0	H	0.0830696	0.216466	0.382769
0	H	0.495797	0.224167	0.718677
0	H	0.824825	0.287922	0.70132
0	H	0.756103	0.553172	0.714842
0	H	0.158282	0.560487	0.0503904
0	H	0.491585	0.62445	0.0462953
0	H	0.414859	0.885334	0.0412363
0	C	0.845153	0.84853	0.709706
0	C	0.200704	0.0197416	0.755529
0	C	0.0213666	0.202951	0.737518
0	C	0.505932	0.173816	0.0757073
0	C	0.868715	0.349657	0.0577341
0	C	0.691727	0.537867	0.0663237
0	C	0.174301	0.511532	0.402947
0	C	0.541833	0.688705	0.399342
0	C	0.354296	0.869634	0.39765
0	H	0.842195	0.802084	0.665828
0	H	0.248324	0.0621057	0.711249
0	H	0.979624	0.206638	0.683494
0	H	0.502636	0.128264	0.0210194
0	H	0.914725	0.392953	0.00605125
0	H	0.650911	0.542891	0.0108971
0	H	0.170493	0.465693	0.348671
0	H	0.588316	0.73079	0.345957
0	H	0.312613	0.874332	0.3491
0	H	0.848611	0.850881	0.869213
0	H	0.199142	0.0203145	0.915324
0	H	0.0185397	0.201958	0.897142
0	H	0.504876	0.170882	0.235337
0	H	0.869297	0.352609	0.217325
0	H	0.687775	0.535579	0.225714
0	H	0.176159	0.510124	0.562506
0	H	0.543154	0.691757	0.558948
0	H	0.352001	0.866876	0.557272
0	H	0.890353	0.889798	0.650454
0	H	0.161922	0.0272554	0.700166
0	H	0.0148976	0.155952	0.688566
0	H	0.553281	0.215773	0.0319912
0	H	0.827598	0.353682	0.00460162
0	H	0.684781	0.490961	0.0145728
0	H	0.220631	0.553306	0.351724
0	H	0.501718	0.694779	0.348229
0	H	0.347255	0.823073	0.342207
0	C	0.791304	0.995151	0.230722
0	C	0.0527395	0.816763	0.286429
0	C	0.223858	0.256882	0.266693
0	C	0.450539	0.321409	0.598216
0	C	0.715457	0.144804	0.584576
0	C	0.886576	0.580634	0.607988
0	C	0.12251	0.657749	0.939612
0	C	0.387885	0.484251	0.931308
0	C	0.556858	0.917479	0.923772
0	H	0.823056	0.0476183	0.267
0	H	0.00139911	0.792035	0.33558
0	H	0.246961	0.228931	0.313868
0	H	0.478674	0.373134	0.647324
0	H	0.663576	0.125168	0.619701
0	H	0.910557	0.553372	0.65362
0	H	0.151331	0.709785	0.985285
0	H	0.336135	0.462181	0.974254
0	H	0.578931	0.887822	0.962133
0	H	0.821008	0.971983	0.239223
0	H	0.0723705	0.870058	0.290997
0	H	0.170691	0.223866	0.276493
0	H	0.482766	0.301177	0.608657
0	H	0.74113	0.198569	0.599627
0	H	0.833555	0.546045	0.608092
0	H	0.155031	0.637679	0.942705
0	H	0.411021	0.537888	0.942885
0	H	0.503635	0.885879	0.937685
0	H	0.753738	0.97338	0.345383
0	H	0.0792814	0.805141	0.3951
0	H	0.2383	0.296573	0.373876
0	H	0.410504	0.295105	0.703606
0	H	0.734707	0.125997	0.696788
0	H	0.897634	0.617771	0.721407
0	H	0.0846478	0.631932	0.0515977
0	H	0.410594	0.468195	0.0405777
0	H	0.573694	0.956448	0.0346952
