#******************************************
#
# CIF file created by Zeo++
# Zeo++ is an open source package to
# analyze microporous materials
#
#*******************************************

_cell_length_a		18.4364(0)
_cell_length_b		18.4901(0)
_cell_length_c		8.80474(0)
_cell_angle_alpha		90(0)
_cell_angle_beta		90(0)
_cell_angle_gamma		120.693(0)

_symmetry_space_group_name_H-M		'P1'
_symmetry_Int_Tables_number		1
_symmetry_cell_setting		Monoclinic

loop_
_symmetry_equiv_pos_as_xyz
'+x,+y,+z'

loop_
_atom_site_label
_atom_site_type_symbol
_atom_site_fract_x
_atom_site_fract_y
_atom_site_fract_z
0	C	0.283309	0.845956	0.563629
0	C	0.2018	0.456985	0.892759
0	C	0.591911	0.761925	0.230761
0	C	0.768152	0.195495	0.0657877
0	C	0.849466	0.584331	0.391429
0	C	0.45933	0.279153	0.730729
0	C	0.367255	0.862202	0.649698
0	C	0.187267	0.524915	0.980481
0	C	0.521981	0.678094	0.315681
0	C	0.684099	0.179311	0.151281
0	C	0.86428	0.516857	0.480109
0	C	0.529417	0.363077	0.815188
0	C	0.419252	0.8463	0.526442
0	C	0.20415	0.59385	0.858213
0	C	0.452521	0.627799	0.192418
0	C	0.632313	0.195165	0.0275666
0	C	0.847133	0.447389	0.35892
0	C	0.598496	0.413495	0.69141
0	C	0.363573	0.812563	0.391531
0	C	0.235551	0.571664	0.72137
0	C	0.47524	0.684623	0.0596096
0	C	0.68814	0.228825	0.89284
0	C	0.815601	0.469054	0.221589
0	C	0.575502	0.356658	0.558566
0	C	0.380489	0.783802	0.25823
0	C	0.263354	0.617266	0.587154
0	C	0.428503	0.669447	0.927478
0	C	0.671531	0.257746	0.759388
0	C	0.787804	0.422982	0.0878978
0	C	0.621939	0.371874	0.426082
0	H	0.440379	0.785932	0.243143
0	H	0.262943	0.675776	0.573408
0	H	0.369609	0.609766	0.91128
0	H	0.611636	0.255538	0.743692
0	H	0.788534	0.364591	0.0749683
0	H	0.680846	0.431496	0.409616
0	C	0.318553	0.751457	0.144046
0	C	0.292303	0.586612	0.47022
0	C	0.458398	0.732798	0.816318
0	C	0.733828	0.290454	0.645824
0	C	0.758511	0.45299	0.970436
0	C	0.591619	0.308594	0.314743
0	H	0.330364	0.72792	0.0384149
0	H	0.314819	0.621753	0.363749
0	H	0.421898	0.722703	0.712311
0	H	0.722268	0.314208	0.540196
0	H	0.736038	0.417492	0.86427
0	H	0.627795	0.31877	0.210311
0	C	0.241852	0.747987	0.164727
0	C	0.293633	0.512436	0.489113
0	C	0.533184	0.809087	0.838717
0	C	0.810544	0.29406	0.667217
0	C	0.756778	0.527007	0.988504
0	C	0.516843	0.232358	0.337309
0	H	0.193967	0.721603	0.0747539
0	H	0.317156	0.48983	0.396965
0	H	0.554812	0.858156	0.75126
0	H	0.858711	0.320775	0.577712
0	H	0.732915	0.549143	0.896045
0	H	0.494885	0.183368	0.249661
0	C	0.2245	0.777545	0.299404
0	C	0.265642	0.465939	0.625029
0	C	0.581493	0.824405	0.97168
0	C	0.827534	0.264229	0.801956
0	C	0.784821	0.574029	0.123851
0	C	0.468913	0.216945	0.470853
0	H	0.16359	0.773787	0.314105
0	H	0.267981	0.408273	0.638626
0	H	0.6399	0.884956	0.9877
0	H	0.888471	0.268084	0.817145
0	H	0.782144	0.631569	0.136669
0	H	0.410553	0.156436	0.487099
0	C	0.28586	0.810117	0.410959
0	C	0.236283	0.495691	0.739211
0	C	0.552437	0.761664	0.0802161
0	C	0.765852	0.231353	0.912932
0	C	0.814605	0.544934	0.238449
0	C	0.49835	0.279623	0.57955
0	C	0.35949	0.987378	0.655081
0	C	0.0601088	0.390498	0.985044
0	C	0.654071	0.682927	0.316479
0	C	0.691704	0.0540658	0.157214
0	C	0.991398	0.651383	0.482576
0	C	0.397184	0.358019	0.817524
0	C	0.226407	0.945211	0.495766
0	C	0.101111	0.299172	0.827707
0	C	0.748665	0.817229	0.161835
0	C	0.825117	0.0961841	0.999095
0	C	0.949945	0.741879	0.323828
0	C	0.302113	0.22326	0.664236
0	H	0.177329	0.88403	0.441459
0	H	0.162172	0.312334	0.772526
0	H	0.737346	0.865779	0.106131
0	H	0.874241	0.157247	0.944597
0	H	0.888854	0.728382	0.26832
0	H	0.313144	0.17432	0.609487
0	C	0.184964	0.96698	0.624087
0	C	0.0804541	0.236866	0.957809
0	C	0.810902	0.85869	0.292913
0	C	0.866347	0.074718	0.128242
0	C	0.970527	0.804727	0.452984
0	C	0.240083	0.182619	0.795791
0	H	0.158915	0.917226	0.711042
0	H	0.130935	0.262859	0.043814
0	H	0.785543	0.883199	0.378808
0	H	0.891685	0.12439	0.215435
0	H	0.919973	0.779204	0.538676
0	H	0.265467	0.158421	0.882248
0	H	0.13307	0.97423	0.582512
0	H	0.0735329	0.177565	0.917951
0	H	0.871285	0.911452	0.254214
0	H	0.918701	0.0679741	0.0876312
0	H	0.977709	0.863943	0.412025
0	H	0.17959	0.129732	0.757832
0	H	0.230658	0.0255841	0.681987
0	H	0.0218725	0.222601	0.0163301
0	H	0.823286	0.813421	0.351202
0	H	0.820677	0.0159401	0.185688
0	H	0.0290059	0.819072	0.512135
0	H	0.227906	0.228277	0.853134
0	C	0.264377	0.0107994	0.369784
0	C	0.0346286	0.268924	0.702804
0	C	0.778045	0.780398	0.0379372
0	C	0.787296	0.0303032	0.873561
0	C	0.0163915	0.771735	0.198973
0	C	0.272754	0.259716	0.539636
0	C	0.318809	0.00610899	0.263779
0	C	0.0365639	0.327211	0.597932
0	C	0.719216	0.724539	0.931615
0	C	0.732809	0.0346273	0.767179
0	C	0.014442	0.713068	0.0950094
0	C	0.331405	0.313993	0.431494
0	H	0.335557	0.957631	0.275016
0	H	0.0835275	0.393889	0.609369
0	H	0.65295	0.706227	0.940842
0	H	0.716122	0.0831926	0.777565
0	H	0.96754	0.646421	0.107281
0	H	0.397432	0.331324	0.439832
0	C	0.351563	0.0629274	0.1432
0	C	0.978871	0.300463	0.478236
0	C	0.744968	0.692349	0.813611
0	C	0.699872	0.977309	0.647368
0	C	0.0720417	0.739372	0.97522
0	C	0.30582	0.345894	0.312713
0	H	0.393999	0.0587147	0.0611885
0	H	0.980156	0.346102	0.397718
0	H	0.69855	0.648561	0.731693
0	H	0.657362	0.981259	0.565086
0	H	0.0706436	0.693374	0.895442
0	H	0.352164	0.388381	0.229332
0	C	0.330516	0.125225	0.126415
0	C	0.918795	0.215109	0.461013
0	C	0.829727	0.715685	0.79921
0	C	0.72077	0.914849	0.63166
0	C	0.132146	0.824674	0.957064
0	C	0.221377	0.323839	0.299585
0	H	0.356775	0.16961	0.0316995
0	H	0.873928	0.194803	0.366671
0	H	0.849071	0.689888	0.706385
0	H	0.694227	0.869992	0.537724
0	H	0.176993	0.844652	0.862685
0	H	0.202055	0.349318	0.206138
0	C	0.27645	0.13023	0.231315
0	C	0.916547	0.156836	0.564684
0	C	0.88853	0.771467	0.904066
0	C	0.775029	0.910311	0.736774
0	C	0.134406	0.883285	0.0599208
0	C	0.162748	0.269654	0.406339
0	H	0.260276	0.179123	0.220221
0	H	0.869324	0.0901845	0.553211
0	H	0.954782	0.789679	0.894697
0	H	0.791203	0.861384	0.726479
0	H	0.18162	0.949886	0.0477662
0	H	0.0967502	0.252406	0.397823
0	C	0.243371	0.073228	0.352248
0	C	0.974136	0.183548	0.685071
0	C	0.862929	0.803789	0.0227343
0	C	0.808327	0.967845	0.856895
0	C	0.0768635	0.857045	0.180325
0	C	0.188188	0.23762	0.525756
0	H	0.201091	0.0784077	0.432019
0	H	0.971025	0.1368	0.764308
0	H	0.91015	0.847406	0.102655
0	H	0.850774	0.963054	0.936822
0	H	0.0799854	0.904082	0.25885
0	H	0.141072	0.195215	0.607105
0	C	0.474903	0.987017	0.815256
0	C	0.0605683	0.507609	0.140076
0	C	0.536183	0.5707	0.481372
0	C	0.576464	0.0547907	0.31715
0	C	0.991374	0.535235	0.63977
0	C	0.5155	0.470609	0.981116
0	H	0.525091	0.973514	0.780356
0	H	0.0694721	0.568227	0.0954011
0	H	0.469254	0.523144	0.453454
0	H	0.526935	0.0694928	0.283643
0	H	0.982995	0.474688	0.595901
0	H	0.582245	0.518309	0.952261
0	H	0.502779	0.0566896	0.814801
0	H	0.991411	0.4612	0.145029
0	H	0.573749	0.538833	0.47668
0	H	0.547505	0.984981	0.315482
0	H	0.0604295	0.58204	0.644841
0	H	0.477682	0.502213	0.976844
0	C	0.44187	0.95144	0.97251
0	C	0.0997413	0.520937	0.297059
0	C	0.54193	0.607617	0.638406
0	C	0.610248	0.0893194	0.474642
0	C	0.95194	0.52208	0.796497
0	C	0.510538	0.434118	0.138241
0	H	0.4937	0.97537	0.0548693
0	H	0.0730872	0.547835	0.374484
0	H	0.514497	0.557658	0.72433
0	H	0.558525	0.0669654	0.556946
0	H	0.979019	0.496015	0.874809
0	H	0.538526	0.484309	0.223709
0	H	0.410444	0.88228	0.973142
0	H	0.168454	0.565157	0.292636
0	H	0.507265	0.641518	0.643679
0	H	0.64397	0.158592	0.475913
0	H	0.88337	0.477309	0.792065
0	H	0.545164	0.400095	0.142931
0	H	0.395932	0.967989	0.0136681
0	H	0.0900949	0.462447	0.347293
0	H	0.607563	0.651966	0.671214
0	H	0.654358	0.07023	0.515405
0	H	0.960894	0.580553	0.845597
0	H	0.445089	0.389899	0.17225
0	N	0.292847	0.930265	0.55919
0	N	0.116557	0.381206	0.888966
0	N	0.665271	0.75014	0.221687
0	N	0.758511	0.111156	0.0615502
0	N	0.934664	0.660149	0.386443
0	N	0.385701	0.290559	0.723168
0	N	0.40932	0.951387	0.694472
0	N	0.097827	0.47683	0.0253836
0	N	0.567146	0.634329	0.357514
0	N	0.641809	0.0900787	0.195956
0	N	0.953847	0.565232	0.524264
0	N	0.484242	0.40673	0.857666
0	O	0.349358	0.805151	0.768033
0	O	0.244704	0.563899	0.0989608
0	O	0.483997	0.696056	0.435647
0	O	0.701851	0.236297	0.269665
0	O	0.807129	0.478347	0.599127
0	O	0.567856	0.345186	0.934452
0	H	0.285931	0.773217	0.792219
0	H	0.275799	0.532188	0.122193
0	H	0.517383	0.759133	0.459945
0	H	0.765306	0.26838	0.29384
0	H	0.775772	0.509908	0.62138
0	H	0.534581	0.2821	0.958832
0	O	0.216806	0.792425	0.66037
0	O	0.255385	0.443757	0.986697
0	O	0.608593	0.827945	0.330575
0	O	0.834507	0.248957	0.162864
0	O	0.79611	0.597821	0.485483
0	O	0.443268	0.213133	0.829933
0	H	0.162127	0.754487	0.605567
0	H	0.291943	0.426399	0.930331
0	H	0.625193	0.882787	0.277796
0	H	0.889224	0.287031	0.108302
0	H	0.759269	0.614819	0.429135
0	H	0.426465	0.158293	0.776682
0	O	0.489872	0.859657	0.541984
0	O	0.192481	0.65169	0.875666
0	O	0.39362	0.557319	0.206542
0	O	0.561682	0.181868	0.0425837
0	O	0.858351	0.389331	0.377383
0	O	0.657263	0.484079	0.705081
0	O	0.376085	0.0585109	0.686647
0	O	0.988176	0.335478	0.0159712
0	O	0.707746	0.66498	0.34526
0	O	0.675054	0.982946	0.188904
0	O	0.063392	0.706569	0.512673
0	O	0.343623	0.375992	0.846875
