#******************************************
#
# CIF file created by Zeo++
# Zeo++ is an open source package to
# analyze microporous materials
#
#*******************************************

_cell_length_a		7.89687(0)
_cell_length_b		11.4637(0)
_cell_length_c		26.4198(0)
_cell_angle_alpha		90(0)
_cell_angle_beta		90(0)
_cell_angle_gamma		90(0)

_symmetry_space_group_name_H-M		'P1'
_symmetry_Int_Tables_number		1
_symmetry_cell_setting		Monoclinic

loop_
_symmetry_equiv_pos_as_xyz
'+x,+y,+z'

loop_
_atom_site_label
_atom_site_type_symbol
_atom_site_fract_x
_atom_site_fract_y
_atom_site_fract_z
0	C	0.0872578	0.226695	0.729408
0	C	0.35239	0.761267	0.22586
0	C	0.851196	0.726035	0.771563
0	C	0.587012	0.262802	0.268954
0	H	0.986174	0.162478	0.718966
0	H	0.453393	0.825164	0.215026
0	H	0.952304	0.661801	0.781951
0	H	0.48606	0.326844	0.27966
0	C	0.134838	0.303382	0.684323
0	C	0.302651	0.684454	0.18103
0	C	0.804383	0.803117	0.816588
0	C	0.636058	0.185902	0.313812
0	H	0.077287	0.272747	0.648447
0	H	0.359429	0.714531	0.144915
0	H	0.863514	0.773259	0.852392
0	H	0.577889	0.215494	0.349785
0	H	0.275598	0.305273	0.677383
0	H	0.161724	0.683278	0.174525
0	H	0.664002	0.804401	0.823893
0	H	0.776752	0.18516	0.3207
0	C	0.0763695	0.42457	0.697456
0	C	0.359907	0.563006	0.194185
0	C	0.86112	0.924396	0.802961
0	C	0.57992	0.0642964	0.300456
0	O	0.0704702	0.513124	0.673114
0	O	0.363655	0.474315	0.169894
0	O	0.866216	0.0133094	0.827076
0	O	0.577307	0.975256	0.324512
0	O	0.0174675	0.429177	0.747362
0	O	0.420195	0.558531	0.243947
0	O	0.918987	0.928454	0.752945
0	O	0.519113	0.0600787	0.250759
0	C	0.0196172	0.314152	0.770223
0	C	0.420996	0.673927	0.266565
0	C	0.91812	0.812973	0.730422
0	C	0.518693	0.175468	0.228167
0	H	0.8871	0.297772	0.782455
0	H	0.554456	0.689546	0.278081
0	H	0.0508166	0.797043	0.718319
0	H	0.385468	0.191216	0.216544
0	C	0.149153	0.308963	0.814635
0	C	0.294197	0.680622	0.311643
0	C	0.788945	0.806477	0.685959
0	C	0.646105	0.181934	0.183264
0	H	0.26338	0.365201	0.808079
0	H	0.179467	0.624517	0.305873
0	H	0.674934	0.863069	0.692136
0	H	0.760862	0.125958	0.189131
0	C	0.193671	0.175686	0.813232
0	C	0.250017	0.814013	0.309888
0	C	0.74357	0.673338	0.688075
0	C	0.689879	0.315333	0.184947
0	H	0.0798438	0.12192	0.824095
0	H	0.364492	0.867891	0.320029
0	H	0.856859	0.618877	0.677376
0	H	0.575217	0.368992	0.174772
0	C	0.235216	0.161603	0.75539
0	C	0.20548	0.8269	0.252193
0	C	0.70238	0.660924	0.746002
0	C	0.734165	0.328254	0.242656
0	O	0.39346	0.226447	0.745725
0	O	0.0471378	0.76141	0.243438
0	O	0.545025	0.727059	0.755475
0	O	0.892181	0.262448	0.251477
0	C	0.52118	0.146852	0.730781
0	C	0.919069	0.839812	0.227641
0	C	0.417121	0.648985	0.771663
0	C	0.0208615	0.340828	0.266804
0	O	0.660915	0.184586	0.723495
0	O	0.779682	0.80124	0.220564
0	O	0.278064	0.687768	0.779117
0	O	0.160189	0.302056	0.27379
0	C	0.440028	0.0302037	0.726104
0	C	0.999315	0.956503	0.221994
0	C	0.496954	0.532091	0.777053
0	C	0.941242	0.457768	0.272258
0	H	0.5118	0.954317	0.713987
0	H	0.926944	0.0316038	0.209316
0	H	0.424512	0.457226	0.790038
0	H	0.0140653	0.532878	0.284654
0	C	0.276273	0.0384235	0.738903
0	C	0.16308	0.94934	0.234911
0	C	0.660189	0.538669	0.763511
0	C	0.777201	0.450752	0.259643
0	H	0.179886	0.970907	0.739566
0	H	0.25894	0.0172569	0.235096
0	H	0.755617	0.470482	0.762984
0	H	0.681648	0.518859	0.259453
0	O	0.0758123	0.342411	0.859282
0	O	0.36994	0.648003	0.356099
0	O	0.862703	0.838421	0.641114
0	O	0.570684	0.149064	0.138844
0	Si	0.02068	0.411093	0.909668
0	Si	0.42134	0.576842	0.40636
0	Si	0.91855	0.909896	0.591395
0	Si	0.514946	0.0798005	0.0886504
0	C	0.206268	0.425074	0.952519
0	C	0.236147	0.568389	0.449623
0	C	0.734929	0.92309	0.547736
0	C	0.699558	0.0672536	0.0453478
0	H	0.309563	0.474961	0.935027
0	H	0.128933	0.52245	0.432157
0	H	0.629586	0.971091	0.565159
0	H	0.803896	0.0178737	0.0625578
0	H	0.256533	0.338381	0.96253
0	H	0.192213	0.656381	0.4601
0	H	0.687108	0.836327	0.536845
0	H	0.748539	0.154342	0.0353728
0	H	0.167876	0.469007	0.988027
0	H	0.272107	0.522332	0.484726
0	H	0.773892	0.968945	0.512859
0	H	0.661146	0.0234126	0.00982099
0	C	0.944808	0.558913	0.890802
0	C	0.48675	0.427123	0.386823
0	C	0.989434	0.0578333	0.611721
0	C	0.441678	0.931491	0.107725
0	H	0.832774	0.552657	0.866333
0	H	0.600254	0.430549	0.362848
0	H	0.100338	0.0518046	0.636671
0	H	0.330294	0.937091	0.13249
0	H	0.0452557	0.605599	0.870208
0	H	0.384147	0.384518	0.365541
0	H	0.886886	0.102494	0.632232
0	H	0.543256	0.88529	0.127996
0	H	0.911632	0.608878	0.924948
0	H	0.514694	0.37492	0.420786
0	H	0.0230384	0.109611	0.57814
0	H	0.408049	0.881441	0.0736431
0	C	0.849672	0.32685	0.940859
0	C	0.599611	0.653728	0.437554
0	C	0.0936111	0.829643	0.560193
0	C	0.34121	0.162747	0.0581959
0	H	0.740273	0.312632	0.915739
0	H	0.70599	0.669442	0.411481
0	H	0.200558	0.813374	0.586046
0	H	0.235096	0.17909	0.0843225
0	H	0.806195	0.374418	0.974755
0	H	0.64586	0.60075	0.469662
0	H	0.140102	0.880703	0.527658
0	H	0.293032	0.113389	0.0253787
0	H	0.89551	0.24041	0.952865
0	H	0.558891	0.739109	0.452305
0	H	0.05008	0.744281	0.546135
0	H	0.386511	0.248188	0.0447287
0	O	0.328683	0.144599	0.843066
0	O	0.116994	0.845904	0.340291
0	O	0.608082	0.642018	0.658492
0	O	0.822898	0.347526	0.154592
0	Si	0.376978	0.0436875	0.88637
0	Si	0.0662023	0.945848	0.383538
0	Si	0.559013	0.544523	0.613867
0	Si	0.871721	0.447864	0.111275
0	C	0.583109	0.0882585	0.913424
0	C	0.861685	0.898272	0.410824
0	C	0.35098	0.589479	0.588252
0	C	0.0770417	0.401748	0.0841188
0	H	0.686665	0.0785308	0.885547
0	H	0.758779	0.902737	0.382451
0	H	0.250088	0.583236	0.61719
0	H	0.180806	0.410652	0.11199
0	H	0.614472	0.035253	0.947171
0	H	0.825934	0.953297	0.443394
0	H	0.314804	0.534108	0.555838
0	H	0.109624	0.454065	0.0503089
0	H	0.580971	0.180679	0.925171
0	H	0.868896	0.807144	0.424125
0	H	0.354276	0.680886	0.575129
0	H	0.0730613	0.309243	0.0725125
0	C	0.389704	0.8966	0.856631
0	C	0.0492401	0.0924593	0.353509
0	C	0.549407	0.395425	0.641837
0	C	0.886415	0.594812	0.141089
0	H	0.496335	0.887668	0.829956
0	H	0.937879	0.100821	0.328558
0	H	0.438886	0.382972	0.666849
0	H	0.994608	0.603435	0.167262
0	H	0.27409	0.87357	0.835598
0	H	0.160884	0.1148	0.330492
0	H	0.662412	0.373895	0.664363
0	H	0.772023	0.617826	0.162747
0	H	0.405469	0.831927	0.887204
0	H	0.0390924	0.157869	0.383981
0	H	0.541417	0.332019	0.610521
0	H	0.900737	0.659621	0.110523
0	C	0.204032	0.0426033	0.93407
0	C	0.239073	0.950277	0.431244
0	C	0.728536	0.549038	0.565122
0	C	0.698539	0.450444	0.0636707
0	H	0.180574	0.1317	0.948242
0	H	0.2665	0.861946	0.445632
0	H	0.765875	0.640241	0.557607
0	H	0.675173	0.361988	0.0487829
0	H	0.237275	0.986678	0.966448
0	H	0.204085	0.00613483	0.463431
0	H	0.684807	0.510622	0.52917
0	H	0.731165	0.507939	0.0317633
0	H	0.0844347	0.010837	0.917689
0	H	0.356963	0.984067	0.414463
0	H	0.842733	0.502327	0.577677
0	H	0.578965	0.4812	0.0804442
