#******************************************
#
# CIF file created by Zeo++
# Zeo++ is an open source package to
# analyze microporous materials
#
#*******************************************

_cell_length_a		17.516(0)
_cell_length_b		17.5288(0)
_cell_length_c		14.2853(0)
_cell_angle_alpha		90(0)
_cell_angle_beta		90(0)
_cell_angle_gamma		90(0)

_symmetry_space_group_name_H-M		'P1'
_symmetry_Int_Tables_number		1
_symmetry_cell_setting		Monoclinic

loop_
_symmetry_equiv_pos_as_xyz
'+x,+y,+z'

loop_
_atom_site_label
_atom_site_type_symbol
_atom_site_fract_x
_atom_site_fract_y
_atom_site_fract_z
0	Si	0.762188	0.411171	0.594141
0	Si	0.710433	0.0675894	0.593453
0	Si	0.067189	0.762165	0.594231
0	Si	0.410909	0.710523	0.593108
0	Si	0.21385	0.564373	0.389138
0	Si	0.265324	0.907143	0.389716
0	Si	0.908209	0.213357	0.389274
0	Si	0.565288	0.264652	0.39008
0	Si	0.683394	0.407934	0.389224
0	Si	0.789633	0.0702057	0.387957
0	Si	0.0706535	0.682719	0.388961
0	Si	0.408741	0.788938	0.387929
0	Si	0.292552	0.567453	0.594048
0	Si	0.186146	0.905004	0.595282
0	Si	0.905284	0.292703	0.594582
0	Si	0.567268	0.186081	0.595176
0	Si	0.795025	0.310321	0.255443
0	Si	0.678048	0.168674	0.254956
0	Si	0.169005	0.793926	0.255249
0	Si	0.310771	0.677032	0.255001
0	Si	0.180722	0.665129	0.727601
0	Si	0.297979	0.806548	0.727948
0	Si	0.806854	0.181047	0.727591
0	Si	0.665273	0.298151	0.727881
0	O	0.723587	0.427263	0.49088
0	O	0.749191	0.052819	0.489977
0	O	0.0526016	0.723297	0.490761
0	O	0.427327	0.749062	0.489926
0	O	0.252558	0.548193	0.492291
0	O	0.226432	0.922102	0.493085
0	O	0.923127	0.252284	0.492643
0	O	0.548876	0.225934	0.493135
0	O	0.747856	0.376421	0.313785
0	O	0.725816	0.102078	0.311849
0	O	0.102585	0.74658	0.312972
0	O	0.377196	0.724555	0.312468
0	O	0.2279	0.599069	0.669191
0	O	0.250107	0.87314	0.671183
0	O	0.873313	0.228571	0.67015
0	O	0.598864	0.250577	0.670466
0	O	0.700975	0.367088	0.663116
0	O	0.771181	0.111639	0.663351
0	O	0.11114	0.701359	0.664053
0	O	0.36681	0.771477	0.662422
0	O	0.275083	0.608215	0.319963
0	O	0.204643	0.863268	0.319626
0	O	0.864371	0.27416	0.319381
0	O	0.609258	0.203768	0.320547
0	O	0.83863	0.358075	0.582419
0	O	0.633937	0.120775	0.582708
0	O	0.120143	0.838872	0.583586
0	O	0.357367	0.634478	0.581122
0	O	0.137418	0.617486	0.401172
0	O	0.341824	0.853972	0.400617
0	O	0.855375	0.13658	0.400028
0	O	0.618751	0.340748	0.402243
0	C	0.793252	0.499509	0.653123
0	C	0.679457	0.978165	0.650343
0	C	0.977617	0.792555	0.651367
0	C	0.499211	0.678851	0.651775
0	C	0.182677	0.476072	0.33023
0	C	0.296413	0.996463	0.332752
0	C	0.997609	0.182863	0.331931
0	C	0.476954	0.296303	0.331528
0	C	0.802811	0.498705	0.751022
0	C	0.667555	0.978409	0.747895
0	C	0.977411	0.80282	0.749188
0	C	0.497962	0.667786	0.749433
0	C	0.173116	0.476913	0.232329
0	C	0.308218	0.996367	0.235193
0	C	0.997925	0.172931	0.234073
0	C	0.478364	0.307565	0.233905
0	C	0.831575	0.562666	0.79778
0	C	0.639781	0.913441	0.793465
0	C	0.912346	0.83029	0.794936
0	C	0.561883	0.638688	0.795999
0	C	0.144345	0.412967	0.185564
0	C	0.336106	0.061369	0.189799
0	C	0.0629148	0.145187	0.188412
0	C	0.414424	0.33649	0.187246
0	C	0.850968	0.628204	0.747303
0	C	0.623435	0.847435	0.742251
0	C	0.846638	0.847759	0.743625
0	C	0.627773	0.62028	0.745568
0	C	0.124796	0.347481	0.236039
0	C	0.352731	0.127204	0.241225
0	C	0.128378	0.127076	0.239867
0	C	0.348381	0.354601	0.237551
0	C	0.841564	0.62946	0.650179
0	C	0.634817	0.846762	0.645437
0	C	0.846362	0.837827	0.646566
0	C	0.629412	0.631014	0.648658
0	C	0.134201	0.346166	0.333151
0	C	0.341471	0.127698	0.33807
0	C	0.128543	0.136683	0.336971
0	C	0.34661	0.343743	0.334438
0	C	0.813065	0.565515	0.603046
0	C	0.662535	0.911696	0.599516
0	C	0.911436	0.810586	0.600462
0	C	0.565559	0.660039	0.601727
0	C	0.16288	0.410039	0.380271
0	C	0.313546	0.0627795	0.383794
0	C	0.0635681	0.164272	0.382969
0	C	0.410469	0.314827	0.381466
0	C	0.631778	0.490709	0.341311
0	C	0.838745	0.985252	0.34138
0	C	0.986455	0.632308	0.342315
0	C	0.492251	0.839525	0.34015
0	C	0.344061	0.484579	0.641853
0	C	0.13711	0.989984	0.641853
0	C	0.989507	0.343104	0.641174
0	C	0.483635	0.135663	0.642836
0	C	0.573553	0.524736	0.394941
0	C	0.895834	0.949661	0.395352
0	C	0.950578	0.575832	0.396924
0	C	0.525669	0.898388	0.393276
0	C	0.402279	0.450648	0.588136
0	C	0.0798677	0.0252382	0.587817
0	C	0.0248881	0.399621	0.586136
0	C	0.450283	0.0767434	0.589759
0	C	0.52542	0.579421	0.354929
0	C	0.942168	0.893082	0.356067
0	C	0.894007	0.529273	0.357998
0	C	0.579968	0.946774	0.352902
0	C	0.450466	0.395942	0.628038
0	C	0.0334185	0.0818378	0.62687
0	C	0.0813753	0.446589	0.624529
0	C	0.395799	0.0285247	0.630048
0	C	0.534989	0.600776	0.261325
0	C	0.931476	0.870756	0.26299
0	C	0.872507	0.53861	0.264405
0	C	0.602067	0.936359	0.259695
0	C	0.440948	0.37452	0.721614
0	C	0.0442388	0.104517	0.719798
0	C	0.103353	0.437517	0.717979
0	C	0.373487	0.0391562	0.723147
0	C	0.593772	0.568628	0.208219
0	C	0.873406	0.90404	0.20974
0	C	0.906492	0.595675	0.210266
0	C	0.571008	0.87656	0.207366
0	C	0.38212	0.406536	0.774773
0	C	0.1024	0.0715025	0.77314
0	C	0.0699617	0.380313	0.77248
0	C	0.404537	0.0989985	0.775436
0	C	0.642197	0.514011	0.248037
0	C	0.827153	0.960948	0.248662
0	C	0.963024	0.642504	0.249019
0	C	0.516417	0.828183	0.247363
0	C	0.333617	0.461124	0.735065
0	C	0.148701	0.0145296	0.734489
0	C	0.013436	0.333176	0.734322
0	C	0.459299	0.147206	0.735514
0	C	0.8339	0.350265	0.145765
0	C	0.637043	0.131113	0.145153
0	C	0.130619	0.833094	0.144926
0	C	0.349868	0.636471	0.145742
0	C	0.141948	0.625078	0.837278
0	C	0.339039	0.84408	0.837699
0	C	0.845252	0.141876	0.837876
0	C	0.626215	0.338717	0.837143
0	C	0.784455	0.373704	0.0736771
0	C	0.684911	0.107959	0.0713796
0	C	0.107885	0.784003	0.0721799
0	C	0.373769	0.684636	0.0726659
0	C	0.191406	0.601642	0.90936
0	C	0.29112	0.867229	0.911428
0	C	0.867963	0.191053	0.910551
0	C	0.60233	0.290542	0.910246
0	C	0.813944	0.400358	0.988692
0	C	0.653704	0.0834352	0.986332
0	C	0.0831204	0.813825	0.986517
0	C	0.400209	0.653818	0.98826
0	C	0.161925	0.57495	0.994338
0	C	0.322302	0.891795	0.99646
0	C	0.892763	0.161289	0.996236
0	C	0.57586	0.321355	0.994606
0	C	0.892879	0.404095	0.974746
0	C	0.574552	0.0818651	0.973847
0	C	0.0807511	0.892748	0.972485
0	C	0.403155	0.574773	0.97582
0	C	0.0829968	0.571167	0.00827586
0	C	0.401459	0.893349	0.00900288
0	C	0.89517	0.0823818	0.010323
0	C	0.572923	0.400426	0.0070637
0	C	0.942453	0.381653	0.046324
0	C	0.526502	0.104254	0.04699
0	C	0.10254	0.941986	0.0446713
0	C	0.380036	0.526427	0.0483142
0	C	0.0334179	0.593585	0.936709
0	C	0.449531	0.870955	0.9359
0	C	0.873411	0.0330791	0.938185
0	C	0.596032	0.448747	0.934571
0	C	0.913199	0.354987	0.131428
0	C	0.557469	0.128532	0.132257
0	C	0.127194	0.9124	0.13052
0	C	0.353706	0.55699	0.132857
0	C	0.0626565	0.620283	0.851597
0	C	0.418612	0.846684	0.850606
0	C	0.848735	0.0625891	0.852315
0	C	0.622344	0.418188	0.850001
0	H	0.788462	0.447831	0.791842
0	H	0.679301	0.0296595	0.789297
0	H	0.0283593	0.789976	0.790709
0	H	0.446733	0.681124	0.790179
0	H	0.187465	0.527786	0.191497
0	H	0.296297	0.945239	0.193653
0	H	0.947166	0.186263	0.192444
0	H	0.529708	0.294471	0.193252
0	H	0.839314	0.56106	0.873325
0	H	0.630273	0.914636	0.868726
0	H	0.913192	0.838568	0.870422
0	H	0.559935	0.629824	0.871347
0	H	0.136725	0.414543	0.109999
0	H	0.345501	0.0603476	0.114516
0	H	0.0621884	0.137157	0.112891
0	H	0.416448	0.345462	0.11192
0	H	0.873568	0.678263	0.783146
0	H	0.601633	0.796592	0.777205
0	H	0.795709	0.86928	0.778715
0	H	0.677807	0.597398	0.781265
0	H	0.102078	0.297475	0.200187
0	H	0.374668	0.178039	0.206399
0	H	0.179213	0.105293	0.204827
0	H	0.298347	0.377361	0.201773
0	H	0.856973	0.680431	0.610733
0	H	0.62151	0.795442	0.605448
0	H	0.795226	0.851791	0.606511
0	H	0.680582	0.616126	0.609227
0	H	0.118653	0.295219	0.372556
0	H	0.355065	0.178864	0.378227
0	H	0.179477	0.122161	0.37711
0	H	0.295323	0.358457	0.373751
0	H	0.806682	0.56785	0.526923
0	H	0.670432	0.90977	0.523595
0	H	0.909766	0.803699	0.524386
0	H	0.568153	0.667399	0.525751
0	H	0.169405	0.407672	0.456385
0	H	0.305691	0.0645518	0.45972
0	H	0.0650928	0.170923	0.459091
0	H	0.407796	0.307327	0.457413
0	H	0.564674	0.508428	0.468081
0	H	0.905261	0.966229	0.468286
0	H	0.966812	0.567109	0.470109
0	H	0.509068	0.907612	0.466255
0	H	0.411115	0.467023	0.515005
0	H	0.0703744	0.00834675	0.515011
0	H	0.00829271	0.408098	0.51303
0	H	0.46707	0.0673612	0.516871
0	H	0.479639	0.604959	0.396302
0	H	0.987599	0.866897	0.397434
0	H	0.867	0.484902	0.400228
0	H	0.604448	0.99357	0.393518
0	H	0.496215	0.370455	0.586566
0	H	0.987834	0.107723	0.585483
0	H	0.10792	0.491047	0.581994
0	H	0.371343	0.981706	0.589461
0	H	0.496192	0.642175	0.22985
0	H	0.968809	0.827743	0.232172
0	H	0.829563	0.501004	0.233854
0	H	0.64318	0.975332	0.228023
0	H	0.479785	0.333128	0.753033
0	H	0.00684557	0.147578	0.750464
0	H	0.146175	0.475468	0.748158
0	H	0.332234	0.000333828	0.754806
0	H	0.601451	0.58568	0.135653
0	H	0.864604	0.886089	0.137694
0	H	0.889322	0.60329	0.137721
0	H	0.588803	0.868056	0.135204
0	H	0.374459	0.389376	0.847311
0	H	0.111221	0.0897301	0.8451
0	H	0.0876402	0.372847	0.844871
0	H	0.38657	0.107655	0.847506
0	H	0.687791	0.48948	0.205427
0	H	0.782308	0.98654	0.20574
0	H	0.989022	0.686709	0.205523
0	H	0.492591	0.781929	0.205246
0	H	0.287947	0.485522	0.777667
0	H	0.193562	0.989069	0.777532
0	H	0.98779	0.289042	0.778233
0	H	0.483134	0.19349	0.777585
0	H	0.722407	0.370765	0.0823985
0	H	0.747111	0.109438	0.0788681
0	H	0.109943	0.72197	0.0809342
0	H	0.37141	0.746766	0.0801656
0	H	0.253451	0.604608	0.900638
0	H	0.228925	0.865712	0.903903
0	H	0.865867	0.253076	0.901726
0	H	0.604715	0.228414	0.902757
0	H	0.774985	0.417505	0.932941
0	H	0.691539	0.0662364	0.929473
0	H	0.0663715	0.775139	0.930338
0	H	0.417847	0.691883	0.931844
0	H	0.200881	0.557826	0.0501053
0	H	0.284441	0.909062	0.0532569
0	H	0.909497	0.200029	0.0523694
0	H	0.558183	0.283281	0.0509821
0	H	0.915717	0.424193	0.908169
0	H	0.550292	0.0634428	0.907295
0	H	0.0622034	0.915821	0.905366
0	H	0.423171	0.550803	0.909792
0	H	0.0601559	0.551026	0.0748324
0	H	0.425678	0.911779	0.075578
0	H	0.913741	0.0593442	0.0774498
0	H	0.552882	0.424386	0.0730773
0	H	0.0039578	0.38491	0.0360008
0	H	0.464858	0.102758	0.0377514
0	H	0.10035	0.00348127	0.0342924
0	H	0.382583	0.464849	0.0390941
0	H	0.971917	0.590291	0.947019
0	H	0.511174	0.872453	0.94517
0	H	0.875653	0.971593	0.948634
0	H	0.593481	0.510329	0.943761
0	H	0.95302	0.3381	0.186734
0	H	0.518645	0.145233	0.188734
0	H	0.143604	0.951961	0.186286
0	H	0.336469	0.517952	0.188841
0	H	0.0228074	0.637139	0.796306
0	H	0.45744	0.830025	0.794123
0	H	0.832358	0.0229908	0.796572
0	H	0.639519	0.45722	0.793982
0	O	0.736413	0.239672	0.229414
0	O	0.239892	0.735482	0.229394
0	O	0.239497	0.73567	0.753531
0	O	0.736019	0.239548	0.753446
