#******************************************
#
# CIF file created by Zeo++
# Zeo++ is an open source package to
# analyze microporous materials
#
#*******************************************

_cell_length_a		38.2511(0)
_cell_length_b		11.4747(0)
_cell_length_c		7.76102(0)
_cell_angle_alpha		90(0)
_cell_angle_beta		92.4562(0)
_cell_angle_gamma		90(0)

_symmetry_space_group_name_H-M		'P1'
_symmetry_Int_Tables_number		1
_symmetry_cell_setting		Monoclinic

loop_
_symmetry_equiv_pos_as_xyz
'+x,+y,+z'

loop_
_atom_site_label
_atom_site_type_symbol
_atom_site_fract_x
_atom_site_fract_y
_atom_site_fract_z
0	O	0.482484	0.585952	0.456392
0	O	0.547313	0.585259	0.125372
0	O	0.546384	0.37165	0.626228
0	O	0.481496	0.372727	0.957268
0	O	0.98268	0.0866865	0.454681
0	O	0.0463591	0.0852666	0.127117
0	O	0.0461737	0.870973	0.62811
0	O	0.9824	0.872501	0.955687
0	O	0.483689	0.391163	0.447842
0	O	0.544582	0.391087	0.140901
0	O	0.545163	0.566462	0.635122
0	O	0.484198	0.566903	0.941636
0	O	0.983517	0.891913	0.446698
0	O	0.044121	0.890806	0.141706
0	O	0.0453584	0.0657583	0.636011
0	O	0.984651	0.0669411	0.940832
0	C	0.290142	0.564702	0.20646
0	C	0.739133	0.559884	0.360697
0	C	0.738722	0.393274	0.876784
0	C	0.289681	0.398116	0.722262
0	C	0.791059	0.0709518	0.194987
0	C	0.237985	0.0658321	0.361482
0	C	0.237786	0.886959	0.888696
0	C	0.790816	0.892156	0.721796
0	C	0.278607	0.660387	0.335676
0	C	0.751501	0.660272	0.241596
0	C	0.750328	0.297618	0.747704
0	C	0.277268	0.297566	0.840941
0	C	0.779717	0.165857	0.325846
0	C	0.249587	0.166198	0.240374
0	C	0.249185	0.792154	0.757825
0	C	0.779148	0.79152	0.842243
0	C	0.402143	0.906723	0.237632
0	C	0.626863	0.899913	0.338976
0	C	0.626765	0.0511145	0.844127
0	C	0.401952	0.0581374	0.743959
0	C	0.904403	0.408013	0.237146
0	C	0.124854	0.403187	0.347505
0	C	0.124466	0.549848	0.844697
0	C	0.903939	0.554836	0.735521
0	C	0.411593	0.819238	0.0924695
0	C	0.619388	0.817606	0.493558
0	C	0.617321	0.138241	0.989766
0	C	0.409378	0.140258	0.589087
0	C	0.913322	0.322937	0.0880427
0	C	0.117282	0.317771	0.498248
0	C	0.115535	0.634584	0.994203
0	C	0.911427	0.639972	0.584313
0	C	0.385587	0.720975	0.0761143
0	C	0.645134	0.718448	0.5068
0	C	0.643299	0.236585	0.00642776
0	C	0.383636	0.239429	0.575872
0	C	0.88707	0.225481	0.0697276
0	C	0.143528	0.220044	0.510286
0	C	0.141769	0.732075	0.0129689
0	C	0.88519	0.737734	0.572348
0	C	0.386965	0.624395	0.189626
0	C	0.642742	0.621129	0.39487
0	C	0.641914	0.333252	0.893094
0	C	0.386047	0.336732	0.687834
0	C	0.888033	0.128284	0.182099
0	C	0.141463	0.123123	0.397516
0	C	0.140816	0.829429	0.900892
0	C	0.887296	0.834658	0.685111
0	C	0.356266	0.561494	0.217733
0	C	0.673124	0.557512	0.362757
0	C	0.672603	0.396286	0.865258
0	C	0.355674	0.400364	0.720006
0	C	0.857109	0.0661157	0.208119
0	C	0.17202	0.0608529	0.364147
0	C	0.171741	0.891707	0.875273
0	C	0.856759	0.896976	0.718623
0	C	0.324716	0.593707	0.131467
0	C	0.705317	0.590003	0.442553
0	C	0.704147	0.364092	0.951608
0	C	0.323473	0.36795	0.640226
0	C	0.825767	0.0995308	0.121041
0	C	0.204115	0.0942598	0.443971
0	C	0.203069	0.858213	0.962405
0	C	0.824643	0.863646	0.638968
0	C	0.32603	0.668415	0.988516
0	C	0.705225	0.665989	0.584397
0	C	0.702837	0.28918	0.0943405
0	C	0.323548	0.292014	0.498332
0	C	0.82748	0.174949	0.979091
0	C	0.20383	0.169672	0.586425
0	C	0.201345	0.782512	0.104031
0	C	0.824884	0.788243	0.496514
0	C	0.356371	0.732082	0.961354
0	C	0.675171	0.730024	0.616202
0	C	0.672505	0.225418	0.121242
0	C	0.353593	0.227918	0.466518
0	C	0.858027	0.238037	0.954136
0	C	0.173608	0.232559	0.619107
0	C	0.170798	0.719358	0.128625
0	C	0.855086	0.72528	0.463703
0	C	0.364835	0.804717	0.452686
0	C	0.664006	0.795958	0.125566
0	C	0.664122	0.153514	0.629692
0	C	0.364745	0.161889	0.957266
0	C	0.866198	0.30646	0.448592
0	C	0.161506	0.300042	0.130984
0	C	0.162726	0.65185	0.633981
0	C	0.867238	0.657888	0.951887
0	C	0.333922	0.743136	0.477065
0	C	0.695179	0.735906	0.101263
0	C	0.695046	0.21513	0.605727
0	C	0.333553	0.221854	0.981498
0	C	0.834996	0.245996	0.470582
0	C	0.192698	0.240682	0.104234
0	C	0.19394	0.712344	0.612457
0	C	0.836022	0.717137	0.978566
0	C	0.305393	0.755931	0.358294
0	C	0.724083	0.75359	0.216325
0	C	0.723546	0.202107	0.724627
0	C	0.304682	0.20424	0.866231
0	C	0.806775	0.26034	0.350418
0	C	0.221886	0.258782	0.217322
0	C	0.222131	0.697717	0.732724
0	C	0.806855	0.698971	0.865389
0	C	0.305344	0.850572	0.243249
0	C	0.724017	0.851167	0.325992
0	C	0.723571	0.107228	0.839234
0	C	0.304788	0.106759	0.756395
0	C	0.807307	0.355413	0.236253
0	C	0.221966	0.35612	0.32745
0	C	0.221571	0.602357	0.846359
0	C	0.806812	0.601636	0.75527
0	C	0.336152	0.912531	0.219238
0	C	0.692886	0.911521	0.349837
0	C	0.692755	0.0452081	0.862758
0	C	0.335925	0.0464177	0.732707
0	C	0.838399	0.416454	0.215072
0	C	0.190819	0.41571	0.353783
0	C	0.190469	0.541269	0.867028
0	C	0.837972	0.54209	0.729075
0	C	0.367171	0.879238	0.30983
0	C	0.661739	0.873749	0.264692
0	C	0.661754	0.0786927	0.772187
0	C	0.367051	0.0841874	0.81808
0	C	0.869127	0.381659	0.306909
0	C	0.159512	0.37754	0.270609
0	C	0.159762	0.576305	0.775236
0	C	0.869264	0.580374	0.812314
0	C	0.419618	0.598622	0.288874
0	C	0.60961	0.596136	0.299193
0	C	0.609269	0.358999	0.793767
0	C	0.419185	0.361727	0.783535
0	C	0.920398	0.101166	0.28287
0	C	0.10842	0.0973461	0.301683
0	C	0.108473	0.856551	0.799989
0	C	0.920352	0.860386	0.780921
0	C	0.435105	0.493747	0.303948
0	C	0.59395	0.491594	0.282446
0	C	0.593754	0.463843	0.778786
0	C	0.434853	0.46626	0.800102
0	C	0.935435	0.995641	0.29968
0	C	0.0930462	0.992397	0.284397
0	C	0.0934117	0.962053	0.783156
0	C	0.935734	0.965301	0.798196
0	C	0.422024	0.382814	0.225851
0	C	0.606863	0.379712	0.358207
0	C	0.606824	0.574763	0.856977
0	C	0.421944	0.57805	0.724035
0	C	0.922134	0.884802	0.222048
0	C	0.106168	0.880572	0.359331
0	C	0.106685	0.0729197	0.860839
0	C	0.92261	0.0771165	0.723112
0	C	0.46867	0.482017	0.407204
0	C	0.56034	0.480956	0.17907
0	C	0.560187	0.47557	0.675575
0	C	0.468456	0.476986	0.903508
0	C	0.968736	0.983	0.404893
0	C	0.0595557	0.981371	0.180374
0	C	0.060117	0.974664	0.677864
0	C	0.969217	0.976357	0.90227
0	H	0.29146	0.479549	0.273627
0	H	0.736138	0.47902	0.283388
0	H	0.737376	0.478393	0.809528
0	H	0.292733	0.478809	0.799946
0	H	0.792016	0.98517	0.260494
0	H	0.235409	0.98424	0.285573
0	H	0.236819	0.972756	0.823251
0	H	0.793493	0.973474	0.798307
0	H	0.269352	0.555216	0.102237
0	H	0.760094	0.541483	0.460282
0	H	0.759489	0.402891	0.981106
0	H	0.268727	0.416832	0.622812
0	H	0.770287	0.0630792	0.0902458
0	H	0.259153	0.0496333	0.460918
0	H	0.258534	0.894862	0.993558
0	H	0.769646	0.908906	0.622615
0	H	0.252967	0.696939	0.287623
0	H	0.776129	0.698157	0.299983
0	H	0.775937	0.261008	0.796099
0	H	0.252666	0.259725	0.782207
0	H	0.754178	0.203475	0.27853
0	H	0.274334	0.204896	0.295975
0	H	0.274698	0.754456	0.805373
0	H	0.754451	0.752851	0.786032
0	H	0.273466	0.618935	0.460951
0	H	0.758765	0.622937	0.116496
0	H	0.755545	0.339081	0.622523
0	H	0.269948	0.33474	0.966061
0	H	0.774416	0.12342	0.450218
0	H	0.25636	0.128709	0.114653
0	H	0.254555	0.834674	0.633596
0	H	0.772261	0.828743	0.967965
0	H	0.423114	0.904647	0.34042
0	H	0.605429	0.890665	0.239365
0	H	0.605809	0.0535361	0.741296
0	H	0.423373	0.0677022	0.843578
0	H	0.925256	0.401978	0.340303
0	H	0.103243	0.397154	0.248292
0	H	0.103635	0.556181	0.741482
0	H	0.925551	0.561291	0.83468
0	H	0.402297	0.996196	0.183873
0	H	0.625736	0.991368	0.384089
0	H	0.626577	0.961493	0.89734
0	H	0.403146	0.966621	0.699195
0	H	0.90534	0.498508	0.187772
0	H	0.1242	0.493553	0.397463
0	H	0.123493	0.459226	0.893542
0	H	0.904669	0.464362	0.686058
0	H	0.438535	0.785986	0.118355
0	H	0.592081	0.78533	0.480617
0	H	0.59036	0.171418	0.96423
0	H	0.436691	0.172524	0.60172
0	H	0.940252	0.288809	0.110968
0	H	0.0902021	0.28392	0.481358
0	H	0.0885967	0.668676	0.971483
0	H	0.938519	0.673807	0.600653
0	H	0.412635	0.867275	0.969
0	H	0.620592	0.869498	0.614056
0	H	0.616335	0.0899077	0.113
0	H	0.408124	0.0882353	0.468721
0	H	0.914135	0.373062	0.966224
0	H	0.11769	0.367513	0.620673
0	H	0.114739	0.584173	0.115767
0	H	0.91093	0.590021	0.462072
0	H	0.356516	0.493244	0.315655
0	H	0.672117	0.488464	0.266071
0	H	0.672354	0.464582	0.767395
0	H	0.356695	0.469403	0.816745
0	H	0.857007	0.997448	0.305284
0	H	0.171189	0.992346	0.266552
0	H	0.171854	0.960475	0.778263
0	H	0.857625	0.965489	0.816236
0	H	0.302492	0.684763	0.9068
0	H	0.729358	0.682865	0.661459
0	H	0.72637	0.272796	0.176078
0	H	0.299416	0.275193	0.421278
0	H	0.804164	0.192165	0.896218
0	H	0.227928	0.186971	0.663574
0	H	0.224652	0.765167	0.186916
0	H	0.800768	0.77098	0.419505
0	H	0.356399	0.796954	0.85876
0	H	0.675929	0.795629	0.717972
0	H	0.672475	0.160395	0.223628
0	H	0.352823	0.162319	0.36475
0	H	0.85836	0.30357	0.852601
0	H	0.174248	0.298045	0.721033
0	H	0.170453	0.653613	0.229864
0	H	0.854411	0.659786	0.361794
0	H	0.387747	0.788234	0.537112
0	H	0.640872	0.775892	0.0445118
0	H	0.641228	0.170166	0.54523
0	H	0.38786	0.18196	0.03848
0	H	0.888852	0.288661	0.534051
0	H	0.138174	0.279737	0.0514858
0	H	0.140091	0.669854	0.548509
0	H	0.890557	0.678304	0.0314359
0	H	0.332911	0.679124	0.580239
0	H	0.696202	0.669269	0.00175765
0	H	0.696087	0.279302	0.502781
0	H	0.332498	0.28841	0.0811255
0	H	0.833535	0.181687	0.57306
0	H	0.193551	0.174262	0.0043318
0	H	0.195433	0.776844	0.510253
0	H	0.83514	0.783555	0.0784814
0	H	0.281997	0.870261	0.161807
0	H	0.747491	0.874842	0.402694
0	H	0.746893	0.0873941	0.920773
0	H	0.281339	0.0831621	0.67942
0	H	0.784264	0.376093	0.153464
0	H	0.245612	0.380112	0.402524
0	H	0.244592	0.581462	0.929184
0	H	0.783181	0.577596	0.680099
0	H	0.336745	0.980493	0.1211
0	H	0.69228	0.982035	0.443802
0	H	0.692139	0.976996	0.960505
0	H	0.336562	0.975955	0.63868
0	H	0.839426	0.484866	0.117883
0	H	0.190352	0.48592	0.448321
0	H	0.189416	0.47257	0.963759
0	H	0.838467	0.471855	0.634598
0	H	0.43193	0.675194	0.352348
0	H	0.597135	0.673403	0.238455
0	H	0.596979	0.282436	0.730188
0	H	0.431641	0.284475	0.844394
0	H	0.932899	0.177427	0.346422
0	H	0.0957337	0.174323	0.241055
0	H	0.0959903	0.780316	0.736346
0	H	0.933027	0.783386	0.84155
0	H	0.40202	0.397589	0.122084
0	H	0.62781	0.392644	0.457947
0	H	0.626802	0.559979	0.960871
0	H	0.401007	0.565008	0.624291
0	H	0.902646	0.899604	0.116028
0	H	0.12662	0.893663	0.461366
0	H	0.126167	0.058187	0.966917
0	H	0.902194	0.0639763	0.620957
0	H	0.443409	0.331923	0.17109
0	H	0.585619	0.330451	0.41714
0	H	0.585426	0.625667	0.911616
0	H	0.443189	0.62725	0.664991
0	H	0.943515	0.832229	0.170644
0	H	0.0849231	0.829563	0.415072
0	H	0.085282	0.125444	0.912164
0	H	0.943864	0.128146	0.667486
0	H	0.410364	0.326985	0.323644
0	H	0.617233	0.322728	0.258191
0	H	0.618504	0.630571	0.759209
0	H	0.411568	0.635152	0.823894
0	H	0.909747	0.830539	0.319391
0	H	0.117241	0.82534	0.259126
0	H	0.119067	0.12719	0.763468
0	H	0.91149	0.132314	0.823216
0	H	0.506207	0.580122	0.527344
0	H	0.523726	0.579744	0.0539871
0	H	0.522643	0.377492	0.555431
0	H	0.505087	0.378287	0.0286889
0	H	0.00623126	0.0802572	0.526565
0	H	0.0227934	0.0794414	0.054534
0	H	0.022627	0.877401	0.556198
0	H	0.00597039	0.87834	0.0282631
