#******************************************
#
# CIF file created by Zeo++
# Zeo++ is an open source package to
# analyze microporous materials
#
#*******************************************

_cell_length_a		14.7809(0)
_cell_length_b		6.96506(0)
_cell_length_c		13.3424(0)
_cell_angle_alpha		90(0)
_cell_angle_beta		111.736(0)
_cell_angle_gamma		90(0)

_symmetry_space_group_name_H-M		'P1'
_symmetry_Int_Tables_number		1
_symmetry_cell_setting		Monoclinic

loop_
_symmetry_equiv_pos_as_xyz
'+x,+y,+z'

loop_
_atom_site_label
_atom_site_type_symbol
_atom_site_fract_x
_atom_site_fract_y
_atom_site_fract_z
0	C	0.838556	0.085409	0.0350006
0	C	0.0526918	0.598476	0.974461
0	C	0.0526958	0.948995	0.967609
0	C	0.836948	0.436051	0.0323621
0	H	0.813952	0.948137	0.993601
0	H	0.0812184	0.464252	0.0171491
0	H	0.0815523	0.0867361	0.00565671
0	H	0.811858	0.571503	0.98903
0	C	0.904391	0.0878105	0.141698
0	C	0.976652	0.59391	0.873945
0	C	0.976473	0.943887	0.867167
0	C	0.901978	0.438317	0.13943
0	H	0.932034	0.952459	0.183812
0	H	0.945105	0.457549	0.837339
0	H	0.944769	0.0771889	0.826151
0	H	0.927416	0.574936	0.180916
0	H	0.508052	0.285239	0.120043
0	H	0.408362	0.849567	0.884279
0	H	0.415646	0.744024	0.900942
0	H	0.496001	0.193008	0.0867201
0	H	0.310331	0.453836	0.0532926
0	H	0.586097	0.0440838	0.946581
0	H	0.573216	0.519197	0.9456
0	H	0.31484	0.0642353	0.0591468
0	H	0.351685	0.982054	0.0753127
0	H	0.538482	0.447087	0.90715
0	H	0.541249	0.100897	0.911783
0	H	0.349451	0.526985	0.0836331
0	H	0.560633	0.199752	0.635792
0	H	0.347166	0.723417	0.327859
0	H	0.358109	0.829982	0.322703
0	H	0.559439	0.309302	0.640084
0	H	0.38931	0.0473627	0.699555
0	H	0.512612	0.554133	0.274021
0	H	0.503845	0.050823	0.305842
0	H	0.370103	0.467323	0.683245
0	H	0.418104	0.422616	0.685176
0	H	0.450137	0.0205544	0.283583
0	H	0.462381	0.595662	0.240669
0	H	0.444482	0.039312	0.715507
0	H	0.155228	0.398156	0.710095
0	H	0.738509	0.898882	0.30683
0	H	0.732917	0.64079	0.305316
0	H	0.160314	0.136987	0.709299
0	H	0.080777	0.258689	0.76629
0	H	0.804903	0.763102	0.241749
0	H	0.742376	0.211159	0.608303
0	H	0.145435	0.706756	0.346496
0	H	0.14056	0.816102	0.346228
0	H	0.743426	0.322935	0.60863
0	H	0.676799	0.0658471	0.3273
0	H	0.229273	0.553239	0.728574
0	H	0.217509	0.953398	0.73636
0	H	0.67797	0.464461	0.307941
0	H	0.628123	0.473669	0.313832
0	H	0.254225	0.0275995	0.731312
0	H	0.270409	0.488831	0.725246
0	H	0.627173	0.0691389	0.334115
0	C	0.806891	0.259306	0.981694
0	C	0.0904159	0.776071	0.0188611
0	C	0.936134	0.264462	0.193369
0	C	0.940268	0.766218	0.819587
0	C	0.00984132	0.268279	0.304327
0	C	0.867887	0.75907	0.707606
0	C	0.110147	0.275147	0.321784
0	C	0.769214	0.762168	0.681404
0	C	0.139197	0.287475	0.226209
0	C	0.732779	0.74931	0.771233
0	C	0.318839	0.344539	0.246258
0	C	0.554276	0.655808	0.741349
0	C	0.502767	0.340887	0.426532
0	C	0.385086	0.785316	0.551946
0	C	0.364645	0.255978	0.500399
0	C	0.52311	0.810874	0.498802
0	C	0.177516	0.268794	0.430566
0	C	0.708994	0.777056	0.56793
0	C	0.0515049	0.266005	0.499353
0	C	0.843252	0.763486	0.512907
0	C	0.108511	0.264329	0.700461
0	C	0.782193	0.766079	0.311825
0	C	0.93254	0.261076	0.589928
0	C	0.955782	0.776202	0.403455
0	C	0.75875	0.275897	0.469432
0	C	0.131625	0.820591	0.54014
0	C	0.876072	0.260746	0.375508
0	C	0.00804898	0.722512	0.664086
0	C	0.978229	0.264605	0.393607
0	C	0.911961	0.745173	0.624584
0	N	0.237602	0.332826	0.243039
0	N	0.634909	0.690778	0.74834
0	N	0.277905	0.259109	0.462008
0	N	0.60751	0.795731	0.530837
0	N	0.148228	0.266545	0.516789
0	N	0.747386	0.781163	0.490166
0	N	0.0281193	0.262244	0.592439
0	N	0.867873	0.757231	0.41693
0	N	0.852733	0.265947	0.481024
0	N	0.0462979	0.801268	0.491284
0	O	0.0850195	0.25951	0.134156
0	O	0.781869	0.779026	0.865339
0	O	0.583574	0.308161	0.446188
0	O	0.31727	0.720509	0.48698
0	O	0.909776	0.257336	0.667795
0	O	0.961483	0.76389	0.313872
0	O	0.803182	0.254018	0.297158
0	O	0.0921553	0.702874	0.70698
0	Br	0.718991	0.254725	0.833606
0	Br	0.198926	0.783006	0.153165
