#******************************************
#
# CIF file created by Zeo++
# Zeo++ is an open source package to
# analyze microporous materials
#
#*******************************************

_cell_length_a		11.9779(0)
_cell_length_b		12.0339(0)
_cell_length_c		14.8644(0)
_cell_angle_alpha		74.7058(0)
_cell_angle_beta		87.6557(0)
_cell_angle_gamma		70.4111(0)

_symmetry_space_group_name_H-M		'P1'
_symmetry_Int_Tables_number		1
_symmetry_cell_setting		Triclinic

loop_
_symmetry_equiv_pos_as_xyz
'+x,+y,+z'

loop_
_atom_site_label
_atom_site_type_symbol
_atom_site_fract_x
_atom_site_fract_y
_atom_site_fract_z
0	Si	0.165741	0.315639	0.322615
0	Si	0.880173	0.708518	0.683719
0	Si	0.315241	0.242838	0.24307
0	Si	0.730669	0.781374	0.763076
0	Si	0.174691	0.164816	0.26604
0	Si	0.871147	0.859383	0.740272
0	C	0.0814592	0.488792	0.282662
0	C	0.964514	0.535371	0.723699
0	C	0.966209	0.538624	0.239329
0	C	0.0797704	0.485567	0.767018
0	C	0.903915	0.665037	0.216612
0	C	0.142121	0.359172	0.789684
0	C	0.955759	0.74549	0.235251
0	C	0.0903156	0.278688	0.771085
0	C	0.0705713	0.698105	0.27631
0	C	0.975455	0.326049	0.730075
0	C	0.133197	0.571346	0.299309
0	C	0.912817	0.452768	0.707064
0	C	0.904029	0.461414	0.21398
0	C	0.141932	0.56277	0.792398
0	C	0.256789	0.535826	0.340506
0	C	0.789238	0.488251	0.665825
0	C	0.889387	0.879908	0.209845
0	C	0.156741	0.144286	0.796381
0	C	0.356925	0.29609	0.116435
0	C	0.688929	0.72811	0.889877
0	C	0.330424	0.4208	0.0691608
0	C	0.715426	0.6034	0.937134
0	C	0.372498	0.457461	0.980356
0	C	0.673324	0.566774	0.025943
0	C	0.43976	0.370493	0.935496
0	C	0.606085	0.653749	0.0707917
0	C	0.462516	0.246464	0.979519
0	C	0.583342	0.777779	0.026761
0	C	0.421735	0.209459	0.0688248
0	C	0.624082	0.81477	0.937444
0	C	0.25596	0.52167	0.109005
0	C	0.789745	0.502524	0.89727
0	C	0.454239	0.0733526	0.107156
0	C	0.5915	0.950874	0.899054
0	C	0.487056	0.40852	0.841913
0	C	0.558714	0.615748	0.164349
0	C	0.0411935	0.181836	0.189314
0	C	0.004614	0.842399	0.817009
0	C	0.0471086	0.194478	0.0922927
0	C	0.998725	0.82974	0.914039
0	C	0.952006	0.196333	0.0388348
0	C	0.0938499	0.827882	0.967452
0	C	0.847171	0.188665	0.0804333
0	C	0.198679	0.835478	0.925846
0	C	0.838142	0.180462	0.175872
0	C	0.207701	0.843724	0.830399
0	C	0.933651	0.177203	0.229757
0	C	0.112143	0.846996	0.776519
0	C	0.152952	0.20839	0.0400142
0	C	0.892844	0.815841	0.966288
0	C	0.909384	0.168476	0.330924
0	C	0.136436	0.855652	0.675387
0	C	0.745664	0.190324	0.0243653
0	C	0.300251	0.833748	0.98191
0	C	0.146549	0.27988	0.460503
0	C	0.899476	0.744233	0.545826
0	C	0.19215	0.142033	0.509526
0	C	0.853791	0.882058	0.496746
0	C	0.0110521	0.329168	0.470316
0	C	0.0348376	0.694922	0.536
0	C	0.20514	0.343664	0.511138
0	C	0.840758	0.680425	0.495204
0	C	0.471498	0.190423	0.313481
0	C	0.574474	0.833675	0.692805
0	C	0.457088	0.168796	0.419355
0	C	0.588875	0.855303	0.586923
0	C	0.516936	0.299554	0.278962
0	C	0.529089	0.7245	0.727296
0	C	0.565374	0.0755815	0.296468
0	C	0.480513	0.948547	0.709807
0	C	0.233811	0.984703	0.326767
0	C	0.812041	0.0394685	0.679513
0	C	0.352585	0.94228	0.38293
0	C	0.693306	0.0818007	0.623321
0	C	0.254094	0.924332	0.245077
0	C	0.791667	0.0999446	0.761157
0	C	0.145437	0.940317	0.391575
0	C	0.900445	0.0838238	0.614722
0	H	0.81514	0.700675	0.183485
0	H	0.230914	0.323567	0.822781
0	H	0.11218	0.759918	0.290288
0	H	0.933878	0.264197	0.71614
0	H	0.889573	0.3947	0.275495
0	H	0.156533	0.629416	0.73082
0	H	0.954147	0.41092	0.164796
0	H	0.0916631	0.613443	0.841489
0	H	0.816355	0.515476	0.178424
0	H	0.229492	0.508721	0.828079
0	H	0.313492	0.440915	0.34475
0	H	0.732309	0.582965	0.661988
0	H	0.253576	0.546865	0.411889
0	H	0.79255	0.477803	0.594262
0	H	0.303902	0.595023	0.299636
0	H	0.742324	0.428648	0.706354
0	H	0.938621	0.932846	0.230039
0	H	0.107135	0.0912603	0.776834
0	H	0.803899	0.901455	0.242902
0	H	0.241734	0.122792	0.76264
0	H	0.870854	0.916598	0.133802
0	H	0.176237	0.107662	0.872298
0	H	0.352207	0.554524	0.946596
0	H	0.693589	0.469721	0.0596825
0	H	0.512689	0.178206	0.944265
0	H	0.533139	0.846041	0.0620057
0	H	0.297152	0.521792	0.173564
0	H	0.748634	0.502586	0.832635
0	H	0.166832	0.51574	0.124167
0	H	0.878954	0.50825	0.882212
0	H	0.240041	0.612952	0.0607418
0	H	0.805467	0.411209	0.945429
0	H	0.395494	0.0443821	0.160674
0	H	0.649913	0.979894	0.84526
0	H	0.545108	0.0342382	0.139561
0	H	0.500457	0.989955	0.866963
0	H	0.452915	0.0280022	0.0521199
0	H	0.593159	0.996265	0.95407
0	H	0.460973	0.508407	0.815062
0	H	0.585054	0.515853	0.191302
0	H	0.45526	0.37461	0.789824
0	H	0.590206	0.649945	0.2164
0	H	0.584571	0.372277	0.845342
0	H	0.461187	0.651709	0.160811
0	H	0.96047	0.203893	0.964457
0	H	0.085435	0.82027	0.0418425
0	H	0.756012	0.176751	0.208511
0	H	0.289798	0.847429	0.797722
0	H	0.232472	0.127368	0.0632796
0	H	0.813171	0.896659	0.94272
0	H	0.172886	0.288809	0.0473824
0	H	0.873274	0.735115	0.95923
0	H	0.139913	0.22353	0.964279
0	H	0.905644	0.801252	0.0419869
0	H	0.969386	0.194996	0.368969
0	H	0.0759716	0.829904	0.637191
0	H	0.916361	0.0740406	0.368325
0	H	0.130349	0.949834	0.638046
0	H	0.818879	0.227039	0.339061
0	H	0.226672	0.796374	0.667354
0	H	0.66602	0.269799	0.0250009
0	H	0.379745	0.754	0.981489
0	H	0.720294	0.108669	0.0528444
0	H	0.325928	0.915165	0.953239
0	H	0.765177	0.194472	0.951041
0	H	0.28066	0.829955	0.0551749
0	H	0.286297	0.0979666	0.497034
0	H	0.759619	0.926121	0.509192
0	H	0.140887	0.0920657	0.487331
0	H	0.905019	0.932094	0.518958
0	H	0.185391	0.12648	0.585399
0	H	0.860623	0.89757	0.420881
0	H	0.963666	0.282428	0.440053
0	H	0.0822912	0.741536	0.56637
0	H	0.972473	0.427935	0.437581
0	H	0.0734104	0.596115	0.568625
0	H	0.991122	0.315576	0.544475
0	H	0.0547841	0.708652	0.461853
0	H	0.301164	0.31811	0.501826
0	H	0.744767	0.705928	0.504571
0	H	0.19297	0.318827	0.586678
0	H	0.852876	0.70533	0.419655
0	H	0.165144	0.443642	0.487734
0	H	0.880816	0.580463	0.518567
0	H	0.405134	0.252696	0.439374
0	H	0.64081	0.771384	0.566916
0	H	0.543567	0.13505	0.457416
0	H	0.502406	0.889052	0.548864
0	H	0.413236	0.100238	0.44751
0	H	0.63276	0.923837	0.558753
0	H	0.454578	0.38454	0.290818
0	H	0.591479	0.63953	0.715418
0	H	0.533579	0.317237	0.204106
0	H	0.512433	0.706788	0.80215
0	H	0.60113	0.281408	0.315997
0	H	0.444904	0.74262	0.690262
0	H	0.534423	0.996146	0.314661
0	H	0.511392	0.0278655	0.691685
0	H	0.647181	0.0496001	0.339314
0	H	0.398746	0.974418	0.666939
0	H	0.590362	0.0894352	0.223411
0	H	0.45547	0.934572	0.782856
0	H	0.349036	0.99377	0.435088
0	H	0.696932	0.0302289	0.57121
0	H	0.42654	0.951498	0.338173
0	H	0.619329	0.0726426	0.668019
0	H	0.378068	0.84537	0.421069
0	H	0.667836	0.178686	0.585097
0	H	0.317799	0.952192	0.19653
0	H	0.727697	0.0723577	0.809537
0	H	0.171456	0.946091	0.20426
0	H	0.874218	0.0780047	0.802147
0	H	0.290117	0.824405	0.271127
0	H	0.755915	0.199871	0.735013
0	H	0.122825	0.986695	0.447997
0	H	0.923255	0.0372561	0.558413
0	H	0.18247	0.841827	0.425053
0	H	0.863353	0.182257	0.581075
0	H	0.0627873	0.954739	0.35375
0	H	0.982983	0.0696055	0.652608
