#******************************************
#
# CIF file created by Zeo++
# Zeo++ is an open source package to
# analyze microporous materials
#
#*******************************************

_cell_length_a		22.2876(0)
_cell_length_b		10.4387(0)
_cell_length_c		16.7728(0)
_cell_angle_alpha		90(0)
_cell_angle_beta		110.741(0)
_cell_angle_gamma		90(0)

_symmetry_space_group_name_H-M		'P1'
_symmetry_Int_Tables_number		1
_symmetry_cell_setting		Monoclinic

loop_
_symmetry_equiv_pos_as_xyz
'+x,+y,+z'

loop_
_atom_site_label
_atom_site_type_symbol
_atom_site_fract_x
_atom_site_fract_y
_atom_site_fract_z
0	O	0.124135	0.232839	0.0662535
0	O	0.931251	0.231137	0.421251
0	O	0.928341	0.81543	0.920352
0	O	0.121307	0.816945	0.565467
0	O	0.648888	0.732874	0.0711372
0	O	0.40599	0.731541	0.417181
0	O	0.403707	0.315405	0.915511
0	O	0.646445	0.316575	0.569478
0	O	0.179492	0.839603	0.968652
0	O	0.873923	0.839953	0.520264
0	O	0.872669	0.208718	0.0177957
0	O	0.178518	0.208402	0.466669
0	O	0.708498	0.342794	0.967599
0	O	0.343631	0.342711	0.519894
0	O	0.343677	0.705515	0.018853
0	O	0.708808	0.705611	0.467009
0	O	0.241965	0.428243	0.947845
0	O	0.809361	0.428098	0.534088
0	O	0.81044	0.620303	0.0385721
0	O	0.243052	0.620043	0.452273
0	O	0.76884	0.926693	0.957397
0	O	0.282091	0.926808	0.526622
0	O	0.283612	0.121845	0.0289884
0	O	0.770301	0.121396	0.459818
0	O	0.278321	0.308175	0.656169
0	O	0.76921	0.30733	0.825243
0	O	0.774302	0.740377	0.330806
0	O	0.283125	0.740874	0.161217
0	O	0.80313	0.809348	0.656597
0	O	0.242845	0.810828	0.823856
0	O	0.249497	0.239173	0.330294
0	O	0.809583	0.237521	0.162779
0	O	0.313386	0.12062	0.704104
0	O	0.734534	0.119588	0.777277
0	O	0.739139	0.927782	0.28263
0	O	0.317759	0.928627	0.209167
0	O	0.838845	0.622639	0.705576
0	O	0.208163	0.623268	0.775706
0	O	0.213654	0.425679	0.281025
0	O	0.844143	0.425171	0.210875
0	O	0.0196322	0.548486	0.853363
0	O	0.0321777	0.545097	0.633605
0	O	0.0326487	0.499512	0.13307
0	O	0.020257	0.503105	0.352964
0	O	0.547016	0.0511596	0.868141
0	O	0.504243	0.0489411	0.618618
0	O	0.5053	0.996802	0.118202
0	O	0.548154	0.999181	0.367714
0	N	0.118785	0.216562	0.8953
0	N	0.932155	0.215066	0.590422
0	N	0.933632	0.831663	0.0912983
0	N	0.120376	0.833125	0.396292
0	N	0.648568	0.718863	0.902411
0	N	0.402091	0.717978	0.584003
0	N	0.403946	0.329313	0.0842197
0	N	0.650365	0.33021	0.402679
0	N	0.277734	0.213027	0.69916
0	N	0.770036	0.212256	0.782255
0	N	0.774788	0.83537	0.287616
0	N	0.282266	0.835944	0.204185
0	N	0.803206	0.714934	0.700668
0	N	0.243583	0.715925	0.780581
0	N	0.249314	0.333391	0.286014
0	N	0.808763	0.332414	0.206003
0	N	0.0993934	0.690209	0.91542
0	N	0.953339	0.688707	0.571699
0	N	0.952812	0.357954	0.0710663
0	N	0.0990846	0.359569	0.415072
0	N	0.628005	0.194314	0.917011
0	N	0.423818	0.193536	0.570232
0	N	0.424236	0.85382	0.0694367
0	N	0.628593	0.854689	0.41645
0	H	0.0651012	0.760283	0.90994
0	H	0.988079	0.758127	0.577842
0	H	0.987064	0.287781	0.076559
0	H	0.0643478	0.290176	0.409011
0	H	0.594656	0.266355	0.909655
0	H	0.457378	0.265353	0.578345
0	H	0.45752	0.781662	0.0768063
0	H	0.595041	0.782859	0.408343
0	N	0.210394	0.630049	0.959871
0	N	0.842022	0.629996	0.524733
0	N	0.841842	0.418325	0.0266513
0	N	0.210405	0.418277	0.461961
0	N	0.738658	0.13118	0.963551
0	N	0.313003	0.130913	0.520991
0	N	0.31361	0.917204	0.0229111
0	N	0.739404	0.917376	0.465763
0	H	0.259599	0.656504	0.985084
0	H	0.792918	0.657685	0.499811
0	H	0.79263	0.391947	0.0014394
0	H	0.25951	0.390593	0.486899
0	H	0.788052	0.156898	0.987883
0	H	0.26372	0.15716	0.495412
0	H	0.264201	0.891572	0.99856
0	H	0.788691	0.891145	0.491395
0	C	0.158062	0.317828	0.793609
0	C	0.890986	0.31735	0.690002
0	C	0.894305	0.730367	0.192939
0	C	0.161348	0.730875	0.296492
0	C	0.685861	0.821886	0.799053
0	C	0.36306	0.821997	0.685467
0	C	0.366547	0.226238	0.187477
0	C	0.689282	0.226258	0.301074
0	C	0.165041	0.727924	0.948587
0	C	0.887825	0.72751	0.538354
0	C	0.887157	0.320351	0.0379089
0	C	0.164599	0.320774	0.44845
0	C	0.693805	0.230561	0.949651
0	C	0.358082	0.230135	0.536783
0	C	0.358414	0.817691	0.0368083
0	C	0.69434	0.818137	0.450007
0	C	0.22924	0.0969926	0.790127
0	C	0.819732	0.0961046	0.692598
0	C	0.823169	0.951245	0.196477
0	C	0.232593	0.952112	0.29384
0	C	0.75509	0.599295	0.791959
0	C	0.293411	0.599496	0.691472
0	C	0.297328	0.448859	0.194564
0	C	0.758897	0.448821	0.295063
0	H	0.256947	0.0110308	0.786801
0	H	0.792065	0.00997643	0.6956
0	H	0.795499	0.0372195	0.199852
0	H	0.260276	0.0382279	0.290845
0	H	0.781494	0.512432	0.786709
0	H	0.266839	0.512628	0.696309
0	H	0.270931	0.535767	0.199825
0	H	0.785482	0.535686	0.290244
0	C	0.109369	0.341662	0.93337
0	C	0.943049	0.339935	0.553461
0	C	0.943031	0.706562	0.0532092
0	C	0.109415	0.70825	0.433172
0	C	0.635279	0.843	0.937877
0	C	0.4166	0.841835	0.549509
0	C	0.417201	0.205186	0.048708
0	C	0.635785	0.206328	0.437071
0	H	0.0565528	0.34523	0.923293
0	H	0.996297	0.342998	0.565935
0	H	0.995847	0.702951	0.06334
0	H	0.0561657	0.705262	0.420694
0	H	0.581701	0.844355	0.923103
0	H	0.470451	0.842807	0.566346
0	H	0.470792	0.203755	0.0635743
0	H	0.581929	0.205387	0.420181
0	C	0.156538	0.208528	0.845183
0	C	0.893487	0.207651	0.639256
0	C	0.895819	0.839662	0.141353
0	C	0.158893	0.840562	0.347278
0	C	0.684628	0.71203	0.850456
0	C	0.365174	0.711709	0.634823
0	C	0.367783	0.336088	0.136059
0	C	0.687165	0.336528	0.351734
0	C	0.106683	0.102279	0.940542
0	C	0.945017	0.100575	0.546057
0	C	0.945664	0.945982	0.0460198
0	C	0.107536	0.947603	0.44069
0	C	0.63643	0.603462	0.946609
0	C	0.41515	0.602218	0.540931
0	C	0.415995	0.444772	0.0399725
0	C	0.637286	0.445941	0.445762
0	H	0.121816	0.0125636	0.916373
0	H	0.928745	0.0110693	0.569114
0	H	0.930449	0.0356469	0.0701494
0	H	0.123831	0.0371108	0.41766
0	H	0.653164	0.514581	0.923339
0	H	0.39694	0.513736	0.562779
0	H	0.399178	0.533581	0.0632174
0	H	0.655476	0.534454	0.423915
0	H	0.0533632	0.0953202	0.924353
0	H	0.998511	0.0927791	0.5642
0	H	0.99898	0.953081	0.0622435
0	H	0.0540458	0.955448	0.422565
0	H	0.583495	0.594672	0.929237
0	H	0.468233	0.59233	0.560649
0	H	0.468931	0.453717	0.0573874
0	H	0.584206	0.455782	0.426106
0	C	0.234362	0.208838	0.745046
0	C	0.813658	0.208341	0.736756
0	C	0.81806	0.839408	0.241579
0	C	0.238618	0.839879	0.249646
0	C	0.760522	0.711831	0.747599
0	C	0.287038	0.712539	0.734793
0	C	0.291923	0.336336	0.238956
0	C	0.765277	0.335796	0.25173
0	C	0.126236	0.461272	0.889322
0	C	0.925063	0.459973	0.596069
0	C	0.926116	0.586964	0.097208
0	C	0.127338	0.588223	0.390521
0	C	0.653294	0.963239	0.89567
0	C	0.397629	0.962465	0.590359
0	C	0.399092	0.0849353	0.0908145
0	C	0.654766	0.0857242	0.396204
0	C	0.148191	0.339657	0.0313997
0	C	0.906477	0.33838	0.454837
0	C	0.904251	0.708615	0.95516
0	C	0.145995	0.709668	0.531802
0	C	0.66967	0.844264	0.0370499
0	C	0.384272	0.843079	0.450038
0	C	0.382895	0.203974	0.94952
0	C	0.668056	0.20497	0.536559
0	H	0.200463	0.323186	0.044335
0	H	0.853836	0.322866	0.439272
0	H	0.851974	0.725131	0.942198
0	H	0.198648	0.725044	0.547381
0	H	0.722916	0.838493	0.0546225
0	H	0.330863	0.837685	0.430258
0	H	0.329644	0.209749	0.931878
0	H	0.721474	0.210131	0.556407
0	C	0.119059	0.00947242	0.0859113
0	C	0.936004	0.00753165	0.401975
0	C	0.933293	0.0388535	0.900679
0	C	0.116604	0.0405493	0.584806
0	C	0.64853	0.510226	0.0916305
0	C	0.407486	0.508753	0.397709
0	C	0.403854	0.538117	0.894979
0	C	0.645128	0.539373	0.589051
0	H	0.136307	0.0318067	0.154512
0	H	0.919816	0.0291291	0.333314
0	H	0.916084	0.0165376	0.832077
0	H	0.13273	0.0188118	0.653439
0	H	0.664397	0.533598	0.160054
0	H	0.393544	0.531833	0.329429
0	H	0.388055	0.514735	0.826566
0	H	0.659001	0.516155	0.657302
0	H	0.138242	0.915228	0.0781375
0	H	0.916983	0.913083	0.409684
0	H	0.914036	0.133026	0.908447
0	H	0.135711	0.134956	0.577197
0	H	0.669416	0.417248	0.0852966
0	H	0.386434	0.415578	0.40315
0	H	0.382828	0.630963	0.901268
0	H	0.666317	0.632449	0.583718
0	H	0.0664348	0.00169144	0.065411
0	H	0.988751	0.000309939	0.424092
0	H	0.985914	0.046764	0.921217
0	H	0.0638645	0.0479409	0.56265
0	H	0.596279	0.500242	0.0700066
0	H	0.459814	0.499118	0.422122
0	H	0.456095	0.548378	0.916667
0	H	0.592818	0.549318	0.564619
0	C	0.14128	0.110965	0.0378787
0	C	0.912606	0.109594	0.448335
0	C	0.91111	0.937258	0.948679
0	C	0.139963	0.938486	0.538401
0	C	0.669818	0.613909	0.0440416
0	C	0.384201	0.612593	0.443095
0	C	0.382645	0.434286	0.942541
0	C	0.668295	0.43547	0.543585
0	H	0.194605	0.109228	0.0549678
0	H	0.85914	0.108722	0.429017
0	H	0.85778	0.938875	0.931547
0	H	0.193428	0.939307	0.557706
0	H	0.723198	0.616898	0.0623378
0	H	0.330683	0.61533	0.422315
0	H	0.329268	0.431104	0.924222
0	H	0.721809	0.432581	0.564311
0	C	0.190282	0.0958652	0.838202
0	C	0.859552	0.0949395	0.645759
0	C	0.862048	0.952296	0.148298
0	C	0.192791	0.953308	0.3407
0	C	0.717385	0.598647	0.841587
0	C	0.332174	0.598388	0.643299
0	C	0.334978	0.449424	0.144858
0	C	0.720115	0.449913	0.34321
0	H	0.187274	0.00914094	0.873516
0	H	0.863241	0.00809713	0.610933
0	H	0.864994	0.0389603	0.112894
0	H	0.189119	0.0401372	0.375552
0	H	0.714313	0.511619	0.876673
0	H	0.335954	0.511009	0.60888
0	H	0.337981	0.536388	0.10966
0	H	0.716317	0.537281	0.377625
0	C	0.136558	0.456354	0.0775333
0	C	0.919961	0.455228	0.410482
0	C	0.915855	0.59189	0.909036
0	C	0.13242	0.592828	0.576079
0	C	0.649272	0.956033	0.0795295
0	C	0.405998	0.954776	0.40898
0	C	0.403315	0.0922162	0.907061
0	C	0.646175	0.0933677	0.577518
0	H	0.140229	0.429439	0.143144
0	H	0.918542	0.428579	0.345706
0	H	0.912213	0.61878	0.843429
0	H	0.133855	0.619436	0.640871
0	H	0.667323	0.941516	0.14943
0	H	0.390868	0.938493	0.339392
0	H	0.385409	0.106873	0.837175
0	H	0.661401	0.109449	0.64714
0	H	0.0882668	0.496787	0.0486937
0	H	0.96787	0.496001	0.441883
0	H	0.964122	0.551345	0.9379
0	H	0.0844742	0.552241	0.544661
0	H	0.59681	0.962934	0.0610834
0	H	0.458526	0.963985	0.430851
0	H	0.455787	0.0851226	0.92569
0	H	0.59363	0.0845698	0.55574
0	H	0.171905	0.532135	0.0841507
0	H	0.884207	0.530887	0.401905
0	H	0.880473	0.516176	0.902389
0	H	0.16809	0.517029	0.584602
0	H	0.668156	0.0478704	0.0678442
0	H	0.38527	0.0460661	0.417971
0	H	0.384305	0.000413918	0.918566
0	H	0.666689	0.00191985	0.568364
0	C	0.19746	0.318765	0.746217
0	C	0.850305	0.318696	0.735579
0	C	0.854892	0.729423	0.240314
0	C	0.201959	0.729553	0.250815
0	C	0.724533	0.822451	0.750642
0	C	0.323126	0.823162	0.732126
0	C	0.327851	0.225651	0.235859
0	C	0.729185	0.225155	0.254374
0	H	0.201087	0.404581	0.710052
0	H	0.845437	0.405119	0.77044
0	H	0.85122	0.643553	0.276412
0	H	0.206769	0.643154	0.215905
0	H	0.728275	0.908589	0.714764
0	H	0.31837	0.909697	0.766989
0	H	0.324063	0.139505	0.271665
0	H	0.733934	0.138662	0.219496
0	C	0.0770923	0.566406	0.884357
0	C	0.97483	0.564358	0.602197
0	C	0.975189	0.481725	0.102131
0	C	0.0775834	0.48385	0.384431
0	C	0.604475	0.0686036	0.892308
0	C	0.446866	0.067413	0.594421
0	C	0.44786	0.979472	0.0941301
0	C	0.605523	0.980736	0.392095
0	C	0.196813	0.500031	0.933183
0	C	0.854825	0.499364	0.550318
0	C	0.855499	0.548326	0.0532582
0	C	0.19761	0.548841	0.436176
0	C	0.724135	0.000149513	0.940232
0	C	0.327008	0.999766	0.544363
0	C	0.328221	0.0482166	0.0461931
0	C	0.725401	0.0484666	0.442211
0	C	0.116974	0.429874	0.795335
0	C	0.932482	0.429305	0.689523
0	C	0.935352	0.618269	0.191181
0	C	0.119881	0.618903	0.297034
0	C	0.644554	0.933537	0.801521
0	C	0.404838	0.933417	0.684071
0	C	0.407804	0.114528	0.184973
0	C	0.647537	0.114809	0.302486
0	H	0.0652171	0.408011	0.758641
0	H	0.983989	0.407574	0.727699
0	H	0.987107	0.640061	0.227901
0	H	0.068362	0.640569	0.258895
0	H	0.593238	0.911303	0.764787
0	H	0.455924	0.910998	0.721982
0	H	0.459128	0.136657	0.221754
0	H	0.596442	0.137175	0.26459
0	H	0.12773	0.515364	0.762621
0	H	0.920803	0.514932	0.721197
0	H	0.924559	0.532774	0.223843
0	H	0.131554	0.533274	0.265356
0	H	0.655603	0.0198272	0.769973
0	H	0.393129	0.0199218	0.714794
0	H	0.396701	0.0282116	0.216441
0	H	0.659256	0.0283212	0.271762
