#******************************************
#
# CIF file created by Zeo++
# Zeo++ is an open source package to
# analyze microporous materials
#
#*******************************************

_cell_length_a		13.2053(0)
_cell_length_b		13.355(0)
_cell_length_c		17.5062(0)
_cell_angle_alpha		90(0)
_cell_angle_beta		90(0)
_cell_angle_gamma		120.448(0)

_symmetry_space_group_name_H-M		'P1'
_symmetry_Int_Tables_number		1
_symmetry_cell_setting		Monoclinic

loop_
_symmetry_equiv_pos_as_xyz
'+x,+y,+z'

loop_
_atom_site_label
_atom_site_type_symbol
_atom_site_fract_x
_atom_site_fract_y
_atom_site_fract_z
0	C	0.148355	0.330824	0.179308
0	C	0.689794	0.819301	0.181344
0	C	0.201065	0.870117	0.181681
0	C	0.881017	0.681932	0.679153
0	C	0.339413	0.194361	0.681315
0	C	0.82716	0.14176	0.681716
0	H	0.0882331	0.357965	0.200981
0	H	0.661852	0.732699	0.203796
0	H	0.288661	0.930596	0.20399
0	H	0.941221	0.654795	0.700599
0	H	0.367532	0.281103	0.703583
0	H	0.739198	0.0813186	0.70361
0	C	0.262868	0.379553	0.225048
0	C	0.6415	0.884706	0.226352
0	C	0.136048	0.755574	0.226337
0	C	0.766407	0.632701	0.724951
0	C	0.38811	0.129199	0.72628
0	C	0.891759	0.256303	0.726495
0	H	0.242837	0.322193	0.276884
0	H	0.700119	0.924455	0.277734
0	H	0.0955665	0.772432	0.27794
0	H	0.786468	0.689608	0.777026
0	H	0.330012	0.0900223	0.777939
0	H	0.931343	0.239248	0.77849
0	C	0.356828	0.3699	0.177678
0	C	0.650628	0.986142	0.177857
0	C	0.0337612	0.661845	0.17768
0	C	0.672405	0.64267	0.677853
0	C	0.378356	0.027294	0.677994
0	C	0.994767	0.349953	0.67823
0	H	0.406155	0.446929	0.138985
0	H	0.572598	0.955746	0.139148
0	H	0.065021	0.61655	0.138422
0	H	0.623157	0.565946	0.638936
0	H	0.456041	0.0573102	0.639034
0	H	0.9641	0.395347	0.638605
0	C	0.306448	0.259102	0.129607
0	C	0.762743	0.0474869	0.129731
0	C	0.970503	0.710049	0.130292
0	C	0.722604	0.753832	0.630223
0	C	0.26585	0.965644	0.630317
0	C	0.0585776	0.30174	0.631518
0	H	0.30381	0.18766	0.163374
0	H	0.835283	0.117747	0.163083
0	H	0.898949	0.709097	0.163893
0	H	0.725299	0.824957	0.664402
0	H	0.193526	0.895735	0.664022
0	H	0.129271	0.302253	0.665922
0	H	0.364327	0.272712	0.0802703
0	H	0.749169	0.0901057	0.0798197
0	H	0.927639	0.653628	0.0802593
0	H	0.664544	0.740598	0.581071
0	H	0.278897	0.922478	0.580518
0	H	0.102463	0.358235	0.581734
0	C	0.182112	0.226122	0.102569
0	C	0.795695	0.957188	0.103691
0	C	0.0606863	0.834755	0.104665
0	C	0.846837	0.786961	0.602965
0	C	0.232938	0.0558775	0.604175
0	C	0.968511	0.177254	0.605558
0	H	0.150618	0.162274	0.0562824
0	H	0.860096	0.989795	0.0573014
0	H	0.0267823	0.865281	0.0587608
0	H	0.878263	0.851098	0.556852
0	H	0.168189	0.0230419	0.55799
0	H	0.00285771	0.14666	0.559967
0	C	0.166081	0.334813	0.0898658
0	C	0.685324	0.831227	0.0917638
0	C	0.188507	0.854784	0.0920002
0	C	0.863067	0.678471	0.589751
0	C	0.343231	0.181777	0.591764
0	C	0.8409	0.157391	0.592091
0	C	0.102086	0.197311	0.174267
0	C	0.824922	0.907976	0.175743
0	C	0.110533	0.912956	0.176963
0	C	0.927006	0.815396	0.674581
0	C	0.204279	0.105626	0.676207
0	C	0.917681	0.0988904	0.677725
0	H	0.00778806	0.143461	0.162893
0	H	0.878719	0.868533	0.164481
0	H	0.149863	0.00621358	0.166117
0	H	0.0212764	0.869481	0.663191
0	H	0.150336	0.14493	0.665027
0	H	0.878489	0.00567252	0.666831
0	H	0.12198	0.158693	0.222784
0	H	0.864653	0.967188	0.223992
0	H	0.0506393	0.891331	0.225304
0	H	0.90708	0.853567	0.723348
0	H	0.164962	0.0467608	0.724666
0	H	0.976863	0.120358	0.726463
0	C	0.26168	0.443404	0.0508561
0	C	0.575968	0.816167	0.0523538
0	C	0.204521	0.763126	0.0515242
0	C	0.767601	0.569519	0.551
0	C	0.452881	0.197179	0.552607
0	C	0.824788	0.249122	0.551813
0	H	0.346198	0.486412	0.0810617
0	H	0.530829	0.853774	0.0832789
0	H	0.166498	0.679681	0.0815834
0	H	0.683736	0.525486	0.581904
0	H	0.499373	0.161969	0.584538
0	H	0.861313	0.331861	0.58258
0	H	0.235217	0.50854	0.0440075
0	H	0.51087	0.724127	0.043603
0	H	0.297747	0.792678	0.0428411
0	H	0.7951	0.505254	0.543414
0	H	0.516829	0.28922	0.542559
0	H	0.731547	0.218849	0.542366
0	H	0.279021	0.421896	0.993458
0	H	0.598894	0.857716	0.995713
0	H	0.162848	0.744837	0.994765
0	H	0.748726	0.590723	0.493932
0	H	0.430057	0.153577	0.496547
0	H	0.867696	0.268883	0.495439
0	C	0.0508627	0.299686	0.0475137
0	C	0.720081	0.751627	0.0503435
0	C	0.267763	0.970522	0.0509468
0	C	0.978016	0.714546	0.546767
0	C	0.307749	0.260402	0.549783
0	C	0.762868	0.0420759	0.550231
0	H	0.977118	0.21711	0.067683
0	H	0.802865	0.761468	0.0712563
0	H	0.256323	0.0414519	0.071997
0	H	0.0513328	0.797734	0.566457
0	H	0.224085	0.249254	0.569931
0	H	0.775147	0.971425	0.570774
0	H	0.0605004	0.290173	0.986156
0	H	0.730824	0.770477	0.988944
0	H	0.248884	0.962194	0.989484
0	H	0.967247	0.723296	0.485396
0	H	0.298328	0.241725	0.488309
0	H	0.782291	0.0516607	0.488813
0	H	0.0253124	0.3654	0.0546827
0	H	0.65274	0.660071	0.0575012
0	H	0.360704	0.998121	0.058181
0	H	0.00484391	0.649784	0.553793
0	H	0.374008	0.352236	0.557258
0	H	0.669644	0.0133423	0.557267
0	C	0.32301	0.50335	0.256232
0	C	0.516667	0.818929	0.257998
0	C	0.203192	0.699175	0.257698
0	C	0.706082	0.50862	0.755675
0	C	0.513322	0.194847	0.757349
0	C	0.824604	0.313157	0.757071
0	H	0.356373	0.570906	0.211749
0	H	0.448092	0.781613	0.213701
0	H	0.241336	0.6699	0.213287
0	H	0.672819	0.441492	0.710938
0	H	0.581289	0.231606	0.712734
0	H	0.78728	0.342587	0.712199
0	H	0.268753	0.517981	0.297943
0	H	0.502856	0.751895	0.300617
0	H	0.270804	0.75343	0.300487
0	H	0.760203	0.493573	0.797237
0	H	0.527839	0.262309	0.799933
0	H	0.756328	0.259142	0.799585
0	C	0.501906	0.491515	0.266354
0	C	0.527289	0.00755926	0.265832
0	C	0.0136137	0.517605	0.264767
0	C	0.527086	0.520375	0.766152
0	C	0.50213	0.00585941	0.765592
0	C	0.0144131	0.494488	0.764812
0	H	0.550117	0.556251	0.220806
0	H	0.461371	0.988432	0.220394
0	H	0.0338223	0.473022	0.218918
0	H	0.478819	0.455969	0.72045
0	H	0.567661	0.0243427	0.719998
0	H	0.994974	0.53922	0.718655
0	C	0.583882	0.488655	0.329836
0	C	0.52988	0.0923583	0.328562
0	C	0.926965	0.432776	0.326618
0	C	0.445082	0.523034	0.829707
0	C	0.499491	0.92128	0.828531
0	C	0.100705	0.579213	0.826846
0	C	0.514863	0.412327	0.397143
0	C	0.609113	0.105271	0.395568
0	C	0.914224	0.496923	0.394431
0	C	0.51416	0.59968	0.89687
0	C	0.420274	0.908841	0.895425
0	C	0.113074	0.514766	0.894601
0	H	0.466545	0.320086	0.380502
0	H	0.702237	0.154656	0.378592
0	H	0.864052	0.53909	0.3782
0	H	0.563762	0.69172	0.879652
0	H	0.327311	0.861777	0.877943
0	H	0.161538	0.470955	0.87803
0	H	0.448896	0.433513	0.41703
0	H	0.591961	0.0200666	0.415604
0	H	0.00056373	0.56621	0.414428
0	H	0.579069	0.577566	0.917531
0	H	0.439312	0.994256	0.916328
0	H	0.0265389	0.446699	0.915169
0	H	0.572288	0.421527	0.445011
0	H	0.597657	0.151322	0.44346
0	H	0.867984	0.438373	0.44212
0	H	0.456621	0.591972	0.944295
0	H	0.429726	0.860709	0.942819
0	H	0.160825	0.573412	0.941939
0	C	0.672045	0.612718	0.352695
0	C	0.404747	0.052743	0.352859
0	C	0.964633	0.34679	0.349439
0	C	0.357235	0.398966	0.852696
0	C	0.624578	0.960769	0.852896
0	C	0.0628854	0.665137	0.849523
0	C	0.632631	0.675039	0.395823
0	C	0.34348	0.949866	0.395523
0	C	0.0678734	0.386993	0.392489
0	C	0.397417	0.336186	0.894596
0	C	0.686715	0.0647742	0.894316
0	C	0.95877	0.624736	0.891622
0	H	0.539866	0.633924	0.41144
0	H	0.385941	0.899928	0.40921
0	H	0.119983	0.479016	0.407386
0	H	0.490493	0.377101	0.909331
0	H	0.644809	0.115496	0.907202
0	H	0.906299	0.5326	0.906207
0	C	0.711134	0.789474	0.417331
0	C	0.228515	0.910869	0.419137
0	C	0.104393	0.310047	0.415049
0	C	0.319291	0.221594	0.915941
0	C	0.801789	0.103859	0.917733
0	C	0.921739	0.701525	0.913582
0	H	0.680112	0.837496	0.450712
0	H	0.181128	0.830668	0.451814
0	H	0.184798	0.341678	0.448148
0	H	0.350937	0.17314	0.948236
0	H	0.849881	0.18498	0.949396
0	H	0.840554	0.669673	0.945844
0	C	0.829157	0.842635	0.395377
0	C	0.174018	0.974176	0.400258
0	C	0.0382547	0.192691	0.394682
0	C	0.200811	0.168831	0.895207
0	C	0.855446	0.0393969	0.899939
0	C	0.988335	0.819022	0.893621
0	H	0.890092	0.931807	0.412407
0	H	0.0846078	0.943916	0.419383
0	H	0.0667209	0.13281	0.412793
0	H	0.140046	0.0793995	0.912134
0	H	0.945014	0.0697894	0.918856
0	H	0.959308	0.878741	0.911111
0	C	0.867943	0.781238	0.351417
0	C	0.234302	0.0755086	0.356794
0	C	0.936466	0.153002	0.350933
0	C	0.161157	0.23075	0.85265
0	C	0.794192	0.93672	0.857901
0	C	0.0911823	0.858996	0.850975
0	H	0.959353	0.8226	0.33314
0	H	0.191771	0.124358	0.34109
0	H	0.885171	0.0619512	0.334221
0	H	0.0693223	0.189696	0.835413
0	H	0.836068	0.886869	0.843181
0	H	0.142908	0.95018	0.834614
0	C	0.789705	0.666301	0.330047
0	C	0.349576	0.114914	0.332864
0	C	0.899766	0.229914	0.327919
0	C	0.239063	0.345788	0.831334
0	C	0.67883	0.897254	0.834175
0	C	0.128367	0.782222	0.82857
0	H	0.820511	0.618187	0.295555
0	H	0.396691	0.194395	0.298478
0	H	0.819899	0.198498	0.293206
0	H	0.207572	0.394284	0.797881
0	H	0.630905	0.816654	0.800947
0	H	0.209095	0.813923	0.794707
0	O	0.441396	0.376684	0.233975
0	O	0.64324	0.0638822	0.233101
0	O	0.9558	0.574805	0.232626
0	O	0.587783	0.635481	0.734231
0	O	0.385945	0.949773	0.733318
0	O	0.0722631	0.436918	0.733349
0	O	0.421111	0.518555	0.303014
0	O	0.50059	0.901127	0.303484
0	O	0.120464	0.599258	0.302921
0	O	0.607907	0.493108	0.802504
0	O	0.529638	0.112819	0.80288
0	O	0.906967	0.413059	0.802486
0	O	0.647559	0.442006	0.29196
0	O	0.574432	0.201245	0.289248
0	O	0.816976	0.369107	0.286597
0	O	0.380958	0.569297	0.791905
0	O	0.454792	0.81209	0.789567
0	O	0.210913	0.642989	0.787035
0	H	0.59455	0.355491	0.284854
0	H	0.661663	0.236497	0.280489
0	H	0.783364	0.42136	0.278337
0	H	0.433849	0.655662	0.784426
0	H	0.367523	0.776576	0.780967
0	H	0.244301	0.590629	0.778555
