#******************************************
#
# CIF file created by Zeo++
# Zeo++ is an open source package to
# analyze microporous materials
#
#*******************************************

_cell_length_a		21.9746(0)
_cell_length_b		4.5407(0)
_cell_length_c		19.3329(0)
_cell_angle_alpha		90(0)
_cell_angle_beta		93.9895(0)
_cell_angle_gamma		90(0)

_symmetry_space_group_name_H-M		'P1'
_symmetry_Int_Tables_number		1
_symmetry_cell_setting		Monoclinic

loop_
_symmetry_equiv_pos_as_xyz
'+x,+y,+z'

loop_
_atom_site_label
_atom_site_type_symbol
_atom_site_fract_x
_atom_site_fract_y
_atom_site_fract_z
0	C	0.0304338	0.898159	0.696063
0	C	0.0362502	0.134993	0.19167
0	C	0.527766	0.395639	0.695321
0	C	0.533707	0.641169	0.190844
0	O	0.0407147	0.688693	0.734751
0	O	0.0464331	0.344177	0.230466
0	O	0.538202	0.183971	0.733323
0	O	0.544185	0.852893	0.228755
0	O	0.972135	0.928275	0.663459
0	O	0.97805	0.101827	0.158874
0	O	0.469444	0.424687	0.662868
0	O	0.475365	0.608742	0.158397
0	C	0.0708598	0.133673	0.676532
0	C	0.0763492	0.899675	0.17143
0	C	0.568147	0.632506	0.676614
0	C	0.573822	0.404646	0.171413
0	C	0.0573212	0.301073	0.617997
0	C	0.0615041	0.729114	0.113642
0	C	0.554981	0.796374	0.617509
0	C	0.559444	0.234922	0.113384
0	N	0.0880939	0.554373	0.601175
0	N	0.0921904	0.475089	0.0971107
0	N	0.585866	0.049554	0.601013
0	N	0.590345	0.9815	0.0969184
0	C	0.0803776	0.68117	0.533999
0	C	0.0815689	0.33743	0.0315584
0	C	0.578691	0.175253	0.533816
0	C	0.579821	0.842052	0.031603
0	N	0.0425761	0.54217	0.484019
0	N	0.0410704	0.470473	0.983295
0	N	0.541101	0.036199	0.483753
0	N	0.539639	0.973555	0.982812
0	C	0.0393406	0.66808	0.41916
0	C	0.0343605	0.337314	0.919444
0	C	0.539184	0.157026	0.418469
0	C	0.533847	0.840849	0.918822
0	C	0.0745371	0.915476	0.404707
0	C	0.0685893	0.0881907	0.903915
0	C	0.575164	0.401699	0.403746
0	C	0.568423	0.592199	0.903813
0	C	0.112173	0.0449366	0.45841
0	C	0.109177	0.965768	0.955723
0	C	0.61206	0.532946	0.457812
0	C	0.608306	0.469739	0.956341
0	N	0.114377	0.9296	0.524225
0	N	0.115099	0.0886237	0.0208735
0	N	0.613025	0.422721	0.52396
0	N	0.613378	0.592689	0.0214885
0	C	0.15883	0.271123	0.444701
0	C	0.155392	0.740899	0.940204
0	C	0.6584	0.761758	0.445017
0	C	0.654788	0.243836	0.942264
0	C	0.00189384	0.509787	0.364454
0	C	0.993749	0.488966	0.866508
0	C	0.502506	0.996261	0.363664
0	C	0.493907	0.993965	0.865531
0	N	0.121385	0.195143	0.725928
0	N	0.127905	0.836861	0.219189
0	N	0.618166	0.695537	0.726629
0	N	0.624847	0.341521	0.219925
0	C	0.172096	0.0124774	0.734145
0	C	0.179245	0.0159367	0.225559
0	C	0.668946	0.512858	0.734955
0	C	0.676286	0.52012	0.226496
0	O	0.17418	0.761914	0.708539
0	O	0.181184	0.267167	0.200286
0	O	0.670867	0.261858	0.709541
0	O	0.678084	0.772988	0.202205
0	C	0.224438	0.118989	0.781469
0	C	0.232499	0.903173	0.27066
0	C	0.7217	0.618622	0.781794
0	C	0.729765	0.405465	0.270783
0	C	0.278635	0.950096	0.784528
0	C	0.287258	0.0679793	0.2723
0	C	0.776101	0.450896	0.784206
0	C	0.78483	0.567458	0.271545
0	C	0.329645	0.0504309	0.82528
0	C	0.33903	0.963495	0.311054
0	C	0.827496	0.553037	0.824119
0	C	0.83677	0.458271	0.309326
0	C	0.326985	0.309639	0.863333
0	C	0.336698	0.698813	0.347952
0	C	0.824996	0.812095	0.862252
0	C	0.834194	0.197427	0.346757
0	C	0.273005	0.475827	0.861133
0	C	0.282169	0.538324	0.347613
0	C	0.770866	0.976967	0.860673
0	C	0.779443	0.0376067	0.346742
0	C	0.221829	0.376735	0.820172
0	C	0.230106	0.644853	0.309252
0	C	0.719279	0.875876	0.820673
0	C	0.727251	0.146388	0.309062
0	C	0.932425	0.674075	0.670181
0	C	0.937848	0.354589	0.163939
0	C	0.430632	0.166798	0.669609
0	C	0.435608	0.863855	0.163147
0	H	0.124034	0.638667	0.63484
0	H	0.129268	0.39468	0.129808
0	H	0.62113	0.135562	0.635312
0	H	0.626953	0.900763	0.130113
0	H	0.017296	0.237186	0.582783
0	H	0.0205736	0.78964	0.0794591
0	H	0.515532	0.730312	0.581648
0	H	0.518648	0.295369	0.0789653
0	H	0.123302	0.416684	0.740173
0	H	0.129873	0.61494	0.233055
0	H	0.619936	0.918143	0.740484
0	H	0.626399	0.119686	0.234192
0	H	0.0725684	0.00769669	0.352328
0	H	0.0635717	0.989442	0.852199
0	H	0.574534	0.488652	0.350953
0	H	0.564261	0.494088	0.851998
0	H	0.281607	0.760937	0.749867
0	H	0.290004	0.257948	0.237956
0	H	0.778896	0.261009	0.749768
0	H	0.78773	0.756586	0.236925
0	H	0.371285	0.918964	0.827719
0	H	0.381148	0.0897423	0.312046
0	H	0.869527	0.424702	0.825594
0	H	0.879336	0.582262	0.30981
0	H	0.366908	0.38355	0.895312
0	H	0.377252	0.621047	0.378168
0	H	0.865046	0.886275	0.894018
0	H	0.8748	0.116795	0.376572
0	H	0.26929	0.663495	0.895837
0	H	0.278802	0.350045	0.382036
0	H	0.767358	0.164959	0.895307
0	H	0.776022	0.849386	0.381133
0	H	0.180247	0.510778	0.817602
0	H	0.187937	0.516458	0.308734
0	H	0.677461	0.00820203	0.818993
0	H	0.684972	0.018755	0.308847
0	H	0.199702	0.164004	0.425948
0	H	0.195683	0.850017	0.920272
0	H	0.699812	0.656877	0.427018
0	H	0.695409	0.351674	0.922893
0	H	0.174913	0.393224	0.492006
0	H	0.173122	0.61776	0.986656
0	H	0.673392	0.884051	0.492618
0	H	0.671671	0.123113	0.989467
0	H	0.142778	0.431371	0.404753
0	H	0.138237	0.580969	0.900695
0	H	0.642379	0.92193	0.404906
0	H	0.638358	0.0821652	0.902796
0	H	0.991051	0.642466	0.317524
0	H	0.980466	0.351158	0.821235
0	H	0.493061	0.125279	0.315871
0	H	0.481828	0.858866	0.819401
0	H	0.0282449	0.317601	0.345777
0	H	0.0187921	0.679096	0.844798
0	H	0.528766	0.80085	0.346658
0	H	0.518635	0.18805	0.845316
0	H	0.95959	0.418648	0.382809
0	H	0.952713	0.580783	0.887765
0	H	0.459497	0.909715	0.381168
0	H	0.452215	0.0817752	0.886249
0	H	0.899383	0.696025	0.625409
0	H	0.907372	0.337973	0.11692
0	H	0.397957	0.184566	0.624424
0	H	0.405299	0.848282	0.115916
0	H	0.957819	0.465189	0.668848
0	H	0.963283	0.563753	0.165955
0	H	0.456778	0.959826	0.669039
0	H	0.461425	0.0720826	0.165281
0	H	0.910579	0.694672	0.719099
0	H	0.913124	0.32698	0.210698
0	H	0.408283	0.186588	0.718234
0	H	0.410494	0.837945	0.209682
