#******************************************
#
# CIF file created by Zeo++
# Zeo++ is an open source package to
# analyze microporous materials
#
#*******************************************

_cell_length_a		40.4128(0)
_cell_length_b		13.465(0)
_cell_length_c		8.68717(0)
_cell_angle_alpha		90(0)
_cell_angle_beta		95.9204(0)
_cell_angle_gamma		90(0)

_symmetry_space_group_name_H-M		'P1'
_symmetry_Int_Tables_number		1
_symmetry_cell_setting		Monoclinic

loop_
_symmetry_equiv_pos_as_xyz
'+x,+y,+z'

loop_
_atom_site_label
_atom_site_type_symbol
_atom_site_fract_x
_atom_site_fract_y
_atom_site_fract_z
0	O	0.347133	0.537654	0.0703698
0	O	0.665046	0.537946	0.464466
0	O	0.665155	0.495863	0.964373
0	O	0.347164	0.498142	0.572912
0	O	0.8454	0.0364333	0.0822724
0	O	0.167026	0.0356114	0.455262
0	O	0.167007	0.998976	0.955994
0	O	0.845362	0.998946	0.581651
0	O	0.37064	0.665098	0.951309
0	O	0.641215	0.665731	0.581294
0	O	0.641801	0.368487	0.0843015
0	O	0.37099	0.370634	0.455413
0	O	0.86922	0.163076	0.962893
0	O	0.14307	0.162735	0.572874
0	O	0.143448	0.872254	0.0762934
0	O	0.869595	0.871826	0.46534
0	C	0.299911	0.858558	0.130168
0	C	0.712344	0.859148	0.406071
0	C	0.712674	0.175147	0.906527
0	C	0.300139	0.176584	0.631609
0	C	0.799104	0.359675	0.136587
0	C	0.213193	0.359059	0.399124
0	C	0.213336	0.676017	0.899918
0	C	0.799242	0.675363	0.63719
0	H	0.300355	0.939549	0.116807
0	H	0.711849	0.940147	0.419548
0	H	0.712259	0.0941652	0.920078
0	H	0.300736	0.0955704	0.618493
0	H	0.799829	0.440475	0.120942
0	H	0.212375	0.43992	0.41416
0	H	0.212612	0.59518	0.915048
0	H	0.800022	0.594528	0.621742
0	C	0.406359	0.306148	0.923507
0	C	0.606088	0.30662	0.614816
0	C	0.606133	0.727233	0.113459
0	C	0.40621	0.729211	0.422576
0	C	0.904846	0.805886	0.934712
0	C	0.107508	0.805325	0.604156
0	C	0.107432	0.229446	0.102799
0	C	0.904861	0.229355	0.433026
0	C	0.273175	0.709815	0.222599
0	C	0.739355	0.710544	0.314796
0	C	0.73944	0.323925	0.814305
0	C	0.272932	0.325039	0.722202
0	C	0.771959	0.213037	0.233596
0	C	0.240613	0.212338	0.304023
0	C	0.240442	0.822928	0.803555
0	C	0.771905	0.821954	0.733164
0	H	0.253115	0.675435	0.280079
0	H	0.759581	0.676266	0.258364
0	H	0.759543	0.35832	0.757173
0	H	0.252653	0.359172	0.778451
0	H	0.75183	0.180277	0.292467
0	H	0.260866	0.179553	0.24601
0	H	0.260533	0.855871	0.744628
0	H	0.75167	0.854686	0.791347
0	C	0.297904	0.650975	0.167614
0	C	0.714462	0.651624	0.36825
0	C	0.714619	0.382705	0.868667
0	C	0.297758	0.384134	0.668539
0	C	0.796374	0.152547	0.179443
0	C	0.216139	0.151871	0.357752
0	C	0.216051	0.883235	0.858328
0	C	0.796403	0.882449	0.679692
0	H	0.297379	0.569607	0.182348
0	H	0.715038	0.570282	0.353358
0	H	0.715121	0.464066	0.853802
0	H	0.297088	0.465492	0.683137
0	H	0.79555	0.0713433	0.19609
0	H	0.217053	0.0706387	0.341625
0	H	0.21687	0.96448	0.842135
0	H	0.795533	0.963658	0.696246
0	C	0.368303	0.465112	0.996339
0	C	0.64399	0.46548	0.539491
0	C	0.644069	0.56844	0.0389387
0	C	0.368255	0.570582	0.498037
0	C	0.866726	0.963776	0.00906118
0	C	0.145705	0.963202	0.5292
0	C	0.145648	0.0715227	0.0292295
0	C	0.866693	0.0714257	0.507929
0	H	0.367367	0.487317	0.872388
0	H	0.645028	0.488078	0.663221
0	H	0.645043	0.546013	0.162802
0	H	0.367271	0.547941	0.374339
0	H	0.86592	0.985936	0.885153
0	H	0.146602	0.98564	0.652973
0	H	0.146442	0.0493564	0.153149
0	H	0.865813	0.0490441	0.384132
0	C	0.323335	0.695687	0.0942796
0	C	0.688819	0.696163	0.440319
0	C	0.689124	0.337955	0.9415
0	C	0.323457	0.339754	0.596683
0	C	0.821888	0.195437	0.10445
0	C	0.19047	0.194748	0.431681
0	C	0.190576	0.840128	0.933287
0	C	0.822031	0.839667	0.605395
0	O	0.252094	0.966153	0.257637
0	O	0.760323	0.966953	0.280001
0	O	0.760452	0.0676108	0.778872
0	O	0.252128	0.0684503	0.756795
0	O	0.752099	0.470614	0.264575
0	O	0.260325	0.469961	0.27197
0	O	0.260226	0.565439	0.77066
0	O	0.752093	0.564329	0.764094
0	C	0.351489	0.365859	0.019678
0	C	0.660827	0.366168	0.516779
0	C	0.660911	0.667716	0.0160236
0	C	0.351427	0.669924	0.520472
0	C	0.849992	0.86437	0.0320485
0	C	0.162374	0.863665	0.506458
0	C	0.162356	0.170969	0.00622914
0	C	0.850003	0.170927	0.53072
0	H	0.326626	0.36354	0.95342
0	H	0.685695	0.364074	0.583028
0	H	0.68581	0.669787	0.0819899
0	H	0.326577	0.672038	0.454071
0	H	0.825118	0.861969	0.965955
0	H	0.187192	0.861073	0.573023
0	H	0.187186	0.173542	0.0727326
0	H	0.825179	0.173467	0.464234
0	H	0.346178	0.359519	0.14291
0	H	0.666102	0.359444	0.393569
0	H	0.666141	0.674442	0.892741
0	H	0.346112	0.67673	0.64363
0	H	0.844749	0.857683	0.155248
0	H	0.167706	0.857002	0.38338
0	H	0.167696	0.177486	0.883128
0	H	0.844679	0.177582	0.653795
0	C	0.372951	0.277516	0.974389
0	C	0.639386	0.277891	0.562775
0	C	0.639514	0.755963	0.0623534
0	C	0.372914	0.758112	0.474502
0	C	0.871547	0.776398	0.986029
0	C	0.140709	0.77573	0.551842
0	C	0.140726	0.258968	0.0515043
0	C	0.871646	0.25889	0.485245
0	H	0.358446	0.240111	0.873284
0	H	0.654024	0.240555	0.66352
0	H	0.654102	0.792998	0.163585
0	H	0.358309	0.795454	0.373661
0	H	0.857033	0.739125	0.884846
0	H	0.155242	0.737922	0.65241
0	H	0.155192	0.296589	0.152516
0	H	0.85711	0.296598	0.384581
0	C	0.274434	0.813047	0.20323
0	C	0.738036	0.813753	0.334348
0	C	0.738195	0.220702	0.833815
0	C	0.274377	0.221815	0.703056
0	C	0.773593	0.316017	0.211695
0	C	0.238878	0.315359	0.325241
0	C	0.238815	0.719898	0.824841
0	C	0.773586	0.71897	0.71139
0	C	0.403444	0.466372	0.0790253
0	C	0.608767	0.466313	0.457737
0	C	0.608897	0.567486	0.956615
0	C	0.403454	0.569728	0.580072
0	C	0.901832	0.965138	0.0922899
0	C	0.110544	0.964609	0.446602
0	C	0.11056	0.0699901	0.945836
0	C	0.901847	0.0700808	0.590623
0	H	0.403404	0.437764	0.20002
0	H	0.608696	0.437283	0.336895
0	H	0.60888	0.596452	0.835786
0	H	0.403494	0.598978	0.70078
0	H	0.901761	0.935934	0.212891
0	H	0.110542	0.935382	0.325942
0	H	0.110658	0.0990417	0.825128
0	H	0.901838	0.0993386	0.711254
0	H	0.41368	0.542457	0.0885371
0	H	0.598487	0.542342	0.447739
0	H	0.598635	0.491451	0.946709
0	H	0.413703	0.493683	0.590438
0	H	0.911977	0.0412585	0.102693
0	H	0.100423	0.0407687	0.436154
0	H	0.100444	0.993832	0.935576
0	H	0.911978	0.993924	0.60112
0	O	0.224767	0.834964	0.311389
0	O	0.788169	0.83596	0.230365
0	O	0.788073	0.198726	0.727511
0	O	0.22436	0.199305	0.807909
0	O	0.72403	0.341192	0.319415
0	O	0.288687	0.340605	0.219646
0	O	0.288356	0.694967	0.716838
0	O	0.723771	0.69368	0.816868
0	C	0.42289	0.25074	0.826895
0	C	0.589758	0.25171	0.712862
0	C	0.589676	0.782362	0.210706
0	C	0.422553	0.783886	0.324324
0	C	0.921264	0.751729	0.836151
0	C	0.0911617	0.75143	0.703357
0	C	0.0909529	0.283634	0.201154
0	C	0.921196	0.283281	0.333803
0	C	0.324404	0.799208	0.0754711
0	C	0.687695	0.799685	0.459233
0	C	0.688086	0.234441	0.960545
0	C	0.324716	0.236221	0.578202
0	C	0.823276	0.298699	0.0827708
0	C	0.188966	0.298078	0.452481
0	C	0.189182	0.736808	0.954288
0	C	0.823478	0.736382	0.58399
0	H	0.344465	0.83244	0.0166782
0	H	0.667449	0.832821	0.516944
0	H	0.667981	0.201187	0.018974
0	H	0.345002	0.203208	0.520619
0	H	0.843357	0.330435	0.0223077
0	H	0.168731	0.329867	0.511939
0	H	0.169114	0.70489	0.0146286
0	H	0.843668	0.70466	0.524178
0	C	0.459347	0.37309	0.0637513
0	C	0.552927	0.372989	0.475503
0	C	0.553047	0.66089	0.973186
0	C	0.459343	0.662678	0.561896
0	C	0.957932	0.872627	0.0746981
0	C	0.0543953	0.872542	0.465272
0	C	0.0544029	0.162311	0.96276
0	C	0.957979	0.16223	0.571933
0	H	0.472571	0.445313	0.0885667
0	H	0.539618	0.445119	0.451096
0	H	0.539782	0.588765	0.94808
0	H	0.472608	0.590492	0.586543
0	H	0.971178	0.944832	0.0989624
0	H	0.0411721	0.944851	0.441844
0	H	0.0411945	0.0900167	0.938825
0	H	0.97121	0.0899324	0.595487
0	C	0.378716	0.198642	0.10613
0	C	0.633425	0.198875	0.431289
0	C	0.633668	0.835285	0.931301
0	C	0.378858	0.837157	0.605966
0	C	0.877534	0.697082	0.117022
0	C	0.134583	0.696944	0.420093
0	C	0.134757	0.337899	0.91994
0	C	0.877748	0.337774	0.616859
0	H	0.390194	0.132572	0.054517
0	H	0.621925	0.133019	0.483404
0	H	0.622168	0.901079	0.983546
0	H	0.390277	0.903118	0.553769
0	H	0.889035	0.631382	0.064486
0	H	0.123067	0.631098	0.472176
0	H	0.12322	0.403731	0.971915
0	H	0.889268	0.403581	0.564666
0	C	0.403017	0.238054	0.24108
0	C	0.609053	0.238298	0.296704
0	C	0.609327	0.796177	0.796268
0	C	0.403279	0.797899	0.740475
0	C	0.901909	0.736197	0.25199
0	C	0.110168	0.736642	0.285771
0	C	0.110425	0.298382	0.785109
0	C	0.902168	0.298175	0.751281
0	H	0.397738	0.203429	0.351739
0	H	0.614263	0.203847	0.18583
0	H	0.614608	0.830897	0.685658
0	H	0.398148	0.832617	0.851234
0	H	0.896801	0.700648	0.362153
0	H	0.115196	0.701545	0.175149
0	H	0.115563	0.333585	0.674715
0	H	0.897131	0.333356	0.861833
0	H	0.398032	0.318609	0.258842
0	H	0.61398	0.318905	0.279033
0	H	0.614261	0.715608	0.778192
0	H	0.398343	0.717339	0.758479
0	H	0.896781	0.816531	0.270959
0	H	0.115334	0.81704	0.26751
0	H	0.115585	0.217988	0.76672
0	H	0.897009	0.217789	0.769698
0	C	0.349712	0.634873	0.0302594
0	C	0.66232	0.635308	0.503455
0	C	0.662676	0.398715	0.00501892
0	C	0.349894	0.400818	0.533492
0	C	0.84814	0.13348	0.0416215
0	C	0.164206	0.132846	0.494709
0	C	0.164376	0.901933	0.996843
0	C	0.848325	0.901657	0.542714
0	N	0.248432	0.875901	0.261863
0	N	0.764183	0.876748	0.277264
0	N	0.764245	0.157844	0.775664
0	N	0.248284	0.158648	0.76024
0	N	0.747948	0.380564	0.269583
0	N	0.264591	0.379934	0.267962
0	N	0.264423	0.655494	0.766353
0	N	0.74785	0.65436	0.768407
0	C	0.345832	0.163531	0.167921
0	C	0.666197	0.163292	0.368929
0	C	0.666507	0.870853	0.869639
0	C	0.346066	0.872367	0.668587
0	C	0.844735	0.661253	0.179047
0	C	0.167306	0.66122	0.35715
0	C	0.167565	0.373543	0.857765
0	C	0.84502	0.373553	0.679683
0	H	0.33611	0.226401	0.235273
0	H	0.675984	0.226053	0.301632
0	H	0.676326	0.808174	0.802232
0	H	0.336371	0.809419	0.735817
0	H	0.835138	0.72344	0.248201
0	H	0.176905	0.72374	0.28869
0	H	0.177154	0.311139	0.788985
0	H	0.835447	0.311157	0.748474
0	C	0.457445	0.28299	0.796932
0	C	0.555232	0.284008	0.743338
0	C	0.555125	0.750105	0.240745
0	C	0.457053	0.751354	0.293818
0	C	0.955779	0.784584	0.806342
0	C	0.0567007	0.784569	0.733696
0	C	0.0564443	0.250623	0.230814
0	C	0.955665	0.250227	0.303486
0	H	0.455295	0.345418	0.712682
0	H	0.55742	0.347076	0.826438
0	H	0.557284	0.687324	0.324357
0	H	0.454805	0.688228	0.210839
0	H	0.953567	0.848252	0.724487
0	H	0.0590015	0.848465	0.815146
0	H	0.0586693	0.186931	0.312637
0	H	0.953373	0.186397	0.221914
0	H	0.47056	0.223129	0.740461
0	H	0.542245	0.224501	0.801266
0	H	0.542072	0.809773	0.297958
0	H	0.47007	0.810718	0.235712
0	H	0.96881	0.725688	0.747379
0	H	0.0436852	0.725901	0.793272
0	H	0.0433641	0.309441	0.289712
0	H	0.968673	0.308964	0.244016
0	C	0.461325	0.316194	0.220042
0	C	0.550744	0.316103	0.319177
0	C	0.550994	0.718198	0.817246
0	C	0.461551	0.719786	0.718037
0	C	0.960167	0.815629	0.230952
0	C	0.0519732	0.816089	0.308522
0	C	0.0521689	0.218947	0.806196
0	C	0.960379	0.218755	0.728623
0	H	0.488171	0.289924	0.241923
0	H	0.523888	0.289749	0.298106
0	H	0.524156	0.744611	0.795892
0	H	0.488422	0.745999	0.739107
0	H	0.987089	0.790099	0.252443
0	H	0.0250284	0.790646	0.287395
0	H	0.0252431	0.244435	0.784532
0	H	0.987317	0.244245	0.749787
0	C	0.31867	0.135505	0.0387761
0	C	0.693338	0.134843	0.497887
0	C	0.693592	0.899087	0.999077
0	C	0.318838	0.900602	0.539887
0	C	0.817309	0.634401	0.0502931
0	C	0.194765	0.633684	0.4853
0	C	0.194995	0.40066	0.986364
0	C	0.817541	0.400796	0.551461
0	H	0.29642	0.107846	0.0870286
0	H	0.715374	0.105589	0.449536
0	H	0.71581	0.927208	0.95107
0	H	0.296817	0.929765	0.588467
0	H	0.79555	0.603449	0.0989102
0	H	0.216298	0.601552	0.436267
0	H	0.216747	0.431477	0.937532
0	H	0.796003	0.432985	0.600401
0	H	0.326954	0.0776087	0.962274
0	H	0.68482	0.0780487	0.57561
0	H	0.685172	0.956698	0.0757166
0	H	0.327265	0.957367	0.461884
0	H	0.825701	0.57933	0.96939
0	H	0.186243	0.579382	0.566962
0	H	0.186606	0.455915	0.0669773
0	H	0.82604	0.454944	0.469492
0	H	0.311051	0.200237	0.967381
0	H	0.701387	0.199738	0.568053
0	H	0.70129	0.83431	0.0702452
0	H	0.310789	0.835612	0.469984
0	H	0.808832	0.700362	0.9837
0	H	0.203641	0.699554	0.551094
0	H	0.203476	0.334824	0.0532661
0	H	0.808683	0.334786	0.486009
0	C	0.424347	0.399415	0.984141
0	C	0.588004	0.39963	0.553794
0	C	0.58807	0.634228	0.052232
0	C	0.424247	0.636155	0.483778
0	C	0.922813	0.898936	0.996484
0	C	0.0895882	0.898534	0.542776
0	C	0.0895197	0.136249	0.0412603
0	C	0.922795	0.136166	0.494429
0	H	0.428915	0.444803	0.8787
0	H	0.583561	0.445394	0.65901
0	H	0.583528	0.588521	0.157384
0	H	0.42864	0.590236	0.378664
0	H	0.927221	0.945001	0.891552
0	H	0.085319	0.944643	0.647839
0	H	0.0851042	0.0903033	0.146299
0	H	0.92707	0.0900656	0.389368
0	C	0.352943	0.074239	0.276531
0	C	0.658935	0.0741854	0.260081
0	C	0.659311	0.960189	0.761206
0	C	0.353252	0.961422	0.777584
0	C	0.851879	0.570845	0.285227
0	C	0.160094	0.571445	0.249728
0	C	0.160426	0.463681	0.751018
0	C	0.852225	0.463573	0.786627
0	H	0.33097	0.0520661	0.332791
0	H	0.680842	0.0518702	0.203398
0	H	0.681269	0.98268	0.705097
0	H	0.331343	0.983385	0.834574
0	H	0.829973	0.548422	0.341919
0	H	0.181979	0.549265	0.192602
0	H	0.182353	0.486031	0.694407
0	H	0.830351	0.485797	0.843789
0	H	0.372989	0.0913194	0.368155
0	H	0.638857	0.0915613	0.168776
0	H	0.639303	0.942973	0.669454
0	H	0.373394	0.9442	0.868686
0	H	0.872089	0.586582	0.376553
0	H	0.13988	0.58776	0.158701
0	H	0.140259	0.447667	0.659619
0	H	0.872475	0.447531	0.877612
0	H	0.361083	0.00923309	0.214119
0	H	0.650771	0.0091812	0.32237
0	H	0.651068	0.0250173	0.823716
0	H	0.361294	0.0266238	0.71534
0	H	0.859724	0.506255	0.220839
0	H	0.152232	0.506483	0.313202
0	H	0.15252	0.528403	0.814954
0	H	0.860027	0.528409	0.722694
0	C	0.410182	0.159501	0.743237
0	C	0.602695	0.161338	0.798238
0	C	0.602491	0.873156	0.295335
0	C	0.409658	0.874236	0.238752
0	C	0.908395	0.661719	0.749606
0	C	0.104053	0.661666	0.790487
0	C	0.103759	0.373689	0.287739
0	C	0.908267	0.372971	0.246613
0	H	0.384134	0.142688	0.759717
0	H	0.62826	0.142153	0.776499
0	H	0.628269	0.891337	0.27581
0	H	0.383964	0.892902	0.25911
0	H	0.882793	0.642471	0.770884
0	H	0.129356	0.640855	0.766565
0	H	0.129217	0.393794	0.26525
0	H	0.882874	0.393283	0.26982
0	H	0.425019	0.0940575	0.782126
0	H	0.587102	0.0961639	0.766334
0	H	0.587191	0.938401	0.260237
0	H	0.425066	0.939607	0.271889
0	H	0.923947	0.596405	0.781038
0	H	0.0880594	0.596771	0.762618
0	H	0.0879527	0.438672	0.25765
0	H	0.924119	0.438081	0.275182
0	H	0.411592	0.167439	0.61797
0	H	0.602708	0.172273	0.923869
0	H	0.601883	0.863494	0.420866
0	H	0.409987	0.863677	0.113227
0	H	0.908417	0.673293	0.624144
0	H	0.104781	0.674581	0.915969
0	H	0.104074	0.361622	0.413241
0	H	0.907731	0.360259	0.121155
0	C	0.455819	0.384422	0.356355
0	C	0.555998	0.384355	0.182542
0	C	0.556378	0.650293	0.680407
0	C	0.456231	0.651732	0.854826
0	C	0.954517	0.883746	0.367216
0	C	0.0574888	0.88465	0.172591
0	C	0.0578469	0.150558	0.670307
0	C	0.95485	0.150231	0.864565
0	H	0.460685	0.344782	0.466522
0	H	0.551304	0.344433	0.0725422
0	H	0.551485	0.690226	0.570514
0	H	0.461127	0.691597	0.964775
0	H	0.960285	0.845096	0.47768
0	H	0.0518264	0.846161	0.0619115
0	H	0.0521099	0.188988	0.559636
0	H	0.960608	0.188643	0.975248
0	H	0.429713	0.410051	0.349862
0	H	0.581986	0.410928	0.188891
0	H	0.582462	0.624496	0.686477
0	H	0.430176	0.625779	0.848948
0	H	0.928163	0.906822	0.362666
0	H	0.0837734	0.908343	0.177284
0	H	0.0841968	0.127417	0.675138
0	H	0.92854	0.126824	0.860131
0	H	0.471891	0.449878	0.360367
0	H	0.539676	0.44925	0.178234
0	H	0.540255	0.584946	0.676172
0	H	0.472365	0.586418	0.858862
0	H	0.969787	0.950853	0.368819
0	H	0.0420685	0.951422	0.171307
0	H	0.0425626	0.0834845	0.668964
0	H	0.970184	0.0832803	0.865639
0	C	0.439767	0.221638	0.218512
0	C	0.572327	0.221669	0.319921
0	C	0.572596	0.812687	0.819072
0	C	0.440016	0.814332	0.716883
0	C	0.938735	0.720751	0.229078
0	C	0.0733635	0.721188	0.309053
0	C	0.0735873	0.313861	0.807641
0	C	0.938968	0.313641	0.727958
0	H	0.450842	0.171609	0.311101
0	H	0.561208	0.171778	0.227311
0	H	0.561524	0.862889	0.726707
0	H	0.451174	0.8644	0.809124
0	H	0.94992	0.670684	0.321322
0	H	0.0621001	0.671572	0.216386
0	H	0.0624185	0.363673	0.714994
0	H	0.95023	0.363334	0.82054
0	H	0.441925	0.181279	0.108676
0	H	0.570299	0.181121	0.429676
0	H	0.570479	0.852866	0.929104
0	H	0.442015	0.854569	0.606848
0	H	0.940901	0.680821	0.118963
0	H	0.0712598	0.680752	0.418784
0	H	0.0713756	0.354077	0.917496
0	H	0.941063	0.353979	0.61812
0	C	0.478615	0.315093	0.946433
0	C	0.533891	0.314899	0.593665
0	C	0.533874	0.718644	0.0911361
0	C	0.478404	0.720434	0.443456
0	C	0.977021	0.814575	0.956709
0	C	0.0353917	0.814238	0.58337
0	C	0.0352583	0.220556	0.0803439
0	C	0.976983	0.220454	0.453747
0	H	0.499534	0.36131	0.915244
0	H	0.512813	0.360597	0.624513
0	H	0.512923	0.672478	0.122099
0	H	0.499409	0.674456	0.412548
0	H	0.998283	0.85981	0.926925
0	H	0.0140485	0.859151	0.613158
0	H	0.013961	0.175416	0.109981
0	H	0.998286	0.175421	0.423831
0	H	0.490148	0.247967	0.00255495
0	H	0.522576	0.247214	0.538414
0	H	0.522387	0.786026	0.0356204
0	H	0.489811	0.78806	0.498489
0	H	0.988094	0.746435	0.0115701
0	H	0.0244208	0.745935	0.528624
0	H	0.0242307	0.288666	0.0251863
0	H	0.988006	0.288693	0.508485
