#******************************************
#
# CIF file created by Zeo++
# Zeo++ is an open source package to
# analyze microporous materials
#
#*******************************************

_cell_length_a		19.6222(0)
_cell_length_b		7.16908(0)
_cell_length_c		17.2358(0)
_cell_angle_alpha		90(0)
_cell_angle_beta		96.4032(0)
_cell_angle_gamma		90(0)

_symmetry_space_group_name_H-M		'P1'
_symmetry_Int_Tables_number		1
_symmetry_cell_setting		Monoclinic

loop_
_symmetry_equiv_pos_as_xyz
'+x,+y,+z'

loop_
_atom_site_label
_atom_site_type_symbol
_atom_site_fract_x
_atom_site_fract_y
_atom_site_fract_z
0	O	0.253202	0.79335	0.930744
0	O	0.754064	0.793435	0.0983742
0	O	0.755822	0.298212	0.931542
0	O	0.251476	0.298307	0.097534
0	O	0.377287	0.842137	0.936998
0	O	0.630031	0.842085	0.0922392
0	O	0.879522	0.361479	0.938821
0	O	0.127775	0.360836	0.0904156
0	O	0.467217	0.350705	0.145601
0	O	0.540249	0.350736	0.884071
0	O	0.968231	0.849839	0.146837
0	O	0.0391614	0.850235	0.88269
0	O	0.355833	0.778231	0.516498
0	O	0.651385	0.778003	0.512732
0	O	0.859317	0.28097	0.516979
0	O	0.147872	0.280616	0.512161
0	O	0.269024	0.53944	0.434486
0	O	0.73816	0.539202	0.594756
0	O	0.772704	0.0416814	0.435327
0	O	0.234491	0.0413179	0.593937
0	O	0.27969	0.484308	0.276756
0	O	0.727509	0.484231	0.752509
0	O	0.782855	0.986862	0.277558
0	O	0.224279	0.986796	0.751666
0	O	0.17053	0.579491	0.289037
0	O	0.836704	0.578783	0.739896
0	O	0.673716	0.0842918	0.287951
0	O	0.333466	0.0837213	0.741147
0	N	0.524136	0.628988	0.159714
0	N	0.483065	0.628553	0.869594
0	N	0.0259247	0.127075	0.158963
0	N	0.981245	0.127058	0.870221
0	C	0.283213	0.787158	0.00619078
0	C	0.724026	0.787132	0.0229264
0	C	0.785736	0.293941	0.00707256
0	C	0.221524	0.293917	0.0220236
0	C	0.358653	0.80849	0.00163134
0	C	0.64858	0.808468	0.0275595
0	C	0.861043	0.320072	0.00276397
0	C	0.146225	0.319812	0.0264178
0	C	0.408432	0.782605	0.0687675
0	C	0.598782	0.782531	0.96047
0	C	0.911014	0.289473	0.0693751
0	C	0.0962246	0.289413	0.959811
0	C	0.402934	0.753695	0.145708
0	C	0.604234	0.753524	0.883522
0	C	0.90557	0.257028	0.146072
0	C	0.101616	0.257041	0.88309
0	C	0.469504	0.717944	0.199907
0	C	0.537662	0.717628	0.829358
0	C	0.972027	0.217441	0.199918
0	C	0.0351378	0.217535	0.829258
0	C	0.495848	0.903892	0.236985
0	C	0.511267	0.903483	0.792235
0	C	0.999488	0.401688	0.237645
0	C	0.00767397	0.401778	0.791578
0	C	0.439475	0.0126792	0.272621
0	C	0.567604	0.0123068	0.756539
0	C	0.943631	0.512858	0.273184
0	C	0.0635171	0.512863	0.755928
0	C	0.394003	0.887956	0.314607
0	C	0.613115	0.88766	0.714586
0	C	0.897507	0.390102	0.315063
0	C	0.109626	0.389895	0.714037
0	C	0.396994	0.899565	0.396165
0	C	0.610129	0.899309	0.633025
0	C	0.900547	0.401852	0.396614
0	C	0.106602	0.401634	0.632479
0	C	0.357025	0.781501	0.437369
0	C	0.650121	0.781268	0.591849
0	C	0.860489	0.28411	0.437867
0	C	0.146677	0.28385	0.591271
0	C	0.313741	0.646769	0.396613
0	C	0.693403	0.646515	0.63263
0	C	0.817142	0.149409	0.397213
0	C	0.190018	0.149159	0.631975
0	C	0.312808	0.634522	0.3152
0	C	0.694345	0.63433	0.714028
0	C	0.815949	0.137441	0.315752
0	C	0.191187	0.137331	0.713432
0	C	0.349911	0.758959	0.272147
0	C	0.657207	0.758717	0.757029
0	C	0.852984	0.261904	0.272662
0	C	0.15414	0.261827	0.756454
0	C	0.275421	0.761195	0.150267
0	C	0.731725	0.761085	0.878874
0	C	0.778085	0.266486	0.15107
0	C	0.22908	0.266506	0.878012
0	C	0.341307	0.757169	0.185273
0	C	0.665831	0.756947	0.843913
0	C	0.844027	0.260931	0.185814
0	C	0.163127	0.260928	0.843309
0	C	0.249141	0.763009	0.0695482
0	C	0.75807	0.762906	0.959576
0	C	0.751688	0.268467	0.0703626
0	C	0.255528	0.268509	0.958705
0	C	0.17901	0.784499	0.914198
0	C	0.828256	0.78454	0.11487
0	C	0.68174	0.284481	0.914732
0	C	0.325563	0.284641	0.114304
0	C	0.517962	0.443671	0.135072
0	C	0.489378	0.443358	0.89438
0	C	0.0189745	0.941271	0.134955
0	C	0.988282	0.941337	0.894314
0	C	0.576893	0.367677	0.0966354
0	C	0.430423	0.36709	0.932701
0	C	0.0768854	0.862981	0.0954667
0	C	0.930291	0.862743	0.933593
0	C	0.38994	0.928571	0.562294
0	C	0.617136	0.92796	0.466843
0	C	0.893653	0.430881	0.56286
0	C	0.113422	0.430282	0.46624
0	C	0.300677	0.375483	0.47328
0	C	0.706428	0.375827	0.555579
0	C	0.804107	0.874974	0.472122
0	C	0.202997	0.875174	0.55676
0	C	0.208483	0.45453	0.275928
0	C	0.79868	0.454141	0.753182
0	C	0.711549	0.95774	0.276477
0	C	0.295562	0.957395	0.752706
0	C	0.194616	0.259045	0.252288
0	C	0.812465	0.258677	0.776937
0	C	0.697639	0.761065	0.254747
0	C	0.309358	0.760699	0.774465
0	H	0.560755	0.716326	0.140164
0	H	0.446359	0.71574	0.889
0	H	0.0619958	0.214024	0.138375
0	H	0.945094	0.213967	0.890694
0	H	0.460789	0.789865	0.0507344
0	H	0.546419	0.789803	0.978486
0	H	0.963342	0.297272	0.0512335
0	H	0.0439142	0.297219	0.977987
0	H	0.457536	0.616584	0.246824
0	H	0.549632	0.616292	0.782437
0	H	0.959697	0.115645	0.246495
0	H	0.0474587	0.115772	0.782683
0	H	0.539527	0.876359	0.282043
0	H	0.467598	0.875776	0.74717
0	H	0.0428046	0.371716	0.282902
0	H	0.964298	0.371846	0.746396
0	H	0.516864	0.994607	0.192816
0	H	0.490199	0.994194	0.836347
0	H	0.021417	0.491784	0.193956
0	H	0.985815	0.491903	0.835306
0	H	0.408298	0.0928797	0.225959
0	H	0.598765	0.0927781	0.803187
0	H	0.91295	0.59444	0.226396
0	H	0.0941799	0.594507	0.8026
0	H	0.463852	0.122514	0.311795
0	H	0.543174	0.122075	0.717313
0	H	0.968583	0.621821	0.312406
0	H	0.0385192	0.621609	0.716656
0	H	0.430652	0.00186745	0.427176
0	H	0.576483	0.00159387	0.601996
0	H	0.934403	0.503712	0.427593
0	H	0.0727495	0.503447	0.601471
0	H	0.234167	0.760155	0.189322
0	H	0.772937	0.760022	0.839768
0	H	0.73692	0.266234	0.19025
0	H	0.270211	0.266248	0.838788
0	H	0.193286	0.741749	0.0594276
0	H	0.813929	0.741574	0.969644
0	H	0.695876	0.246655	0.0602546
0	H	0.311345	0.246738	0.968769
0	H	0.17217	0.819176	0.851376
0	H	0.83513	0.819435	0.177671
0	H	0.674888	0.317316	0.851748
0	H	0.332443	0.317662	0.177274
0	H	0.153898	0.890336	0.946797
0	H	0.853364	0.890205	0.0821798
0	H	0.655558	0.389597	0.946607
0	H	0.35171	0.389678	0.0823501
0	H	0.161014	0.643802	0.925288
0	H	0.846218	0.643765	0.103853
0	H	0.664901	0.143057	0.926535
0	H	0.342397	0.143175	0.102561
0	H	0.624453	0.448572	0.108513
0	H	0.382906	0.448221	0.921058
0	H	0.125608	0.937762	0.108864
0	H	0.881557	0.937454	0.920185
0	H	0.56432	0.358998	0.0327114
0	H	0.44306	0.357541	0.996611
0	H	0.0644514	0.860646	0.0314258
0	H	0.94265	0.86004	0.997641
0	H	0.588257	0.22344	0.116889
0	H	0.418966	0.223044	0.912147
0	H	0.0861055	0.715782	0.113254
0	H	0.921116	0.715615	0.915645
0	H	0.368213	0.913815	0.618266
0	H	0.638538	0.912376	0.410743
0	H	0.870925	0.41869	0.618294
0	H	0.135823	0.417347	0.410621
0	H	0.375628	0.0647854	0.536852
0	H	0.631655	0.0643571	0.491948
0	H	0.88064	0.56707	0.536767
0	H	0.1267	0.566617	0.492066
0	H	0.445242	0.904636	0.56869
0	H	0.561818	0.90432	0.460837
0	H	0.948792	0.404141	0.570413
0	H	0.0582528	0.40396	0.459112
0	H	0.256947	0.310188	0.498098
0	H	0.750188	0.310487	0.530837
0	H	0.760549	0.809991	0.49738
0	H	0.246563	0.810113	0.531549
0	H	0.340259	0.418995	0.519373
0	H	0.667018	0.42	0.509422
0	H	0.844549	0.915086	0.517837
0	H	0.162702	0.915951	0.510994
0	H	0.320704	0.284181	0.430471
0	H	0.686173	0.284216	0.598116
0	H	0.822962	0.784943	0.428086
0	H	0.183923	0.784849	0.600554
0	H	0.147779	0.205031	0.273871
0	H	0.859042	0.204075	0.75495
0	H	0.650524	0.709069	0.276378
0	H	0.356162	0.708097	0.752437
0	H	0.237218	0.163724	0.271275
0	H	0.769667	0.163637	0.758386
0	H	0.74006	0.666292	0.275067
0	H	0.266727	0.666336	0.754666
0	H	0.186931	0.251141	0.186941
0	H	0.820569	0.251141	0.842267
0	H	0.690277	0.749131	0.189494
0	H	0.317164	0.749058	0.839755
