#******************************************
#
# CIF file created by Zeo++
# Zeo++ is an open source package to
# analyze microporous materials
#
#*******************************************

_cell_length_a		8.53279(0)
_cell_length_b		15.3124(0)
_cell_length_c		10.5503(0)
_cell_angle_alpha		121.782(0)
_cell_angle_beta		94.7087(0)
_cell_angle_gamma		87.9269(0)

_symmetry_space_group_name_H-M		'P1'
_symmetry_Int_Tables_number		1
_symmetry_cell_setting		Triclinic

loop_
_symmetry_equiv_pos_as_xyz
'+x,+y,+z'

loop_
_atom_site_label
_atom_site_type_symbol
_atom_site_fract_x
_atom_site_fract_y
_atom_site_fract_z
0	S	0.469723	0.345205	0.687269
0	S	0.527273	0.682524	0.265009
0	O	0.271441	0.942556	0.544343
0	O	0.725473	0.085182	0.407862
0	O	0.549781	0.0138058	0.667733
0	O	0.447269	0.0137607	0.28462
0	O	0.786272	0.409672	0.364022
0	O	0.210746	0.618024	0.588449
0	O	0.10265	0.258185	0.427511
0	O	0.894475	0.769375	0.524713
0	O	0.445232	0.327453	0.512721
0	O	0.551787	0.700198	0.439507
0	O	0.606277	0.286346	0.686481
0	O	0.390425	0.741144	0.26575
0	O	0.477417	0.455529	0.775523
0	O	0.520061	0.572188	0.176603
0	N	0.198352	0.275312	0.241392
0	N	0.798725	0.752452	0.710958
0	C	0.62932	0.256972	0.277781
0	C	0.367752	0.770651	0.674399
0	C	0.627166	0.374289	0.350863
0	C	0.369853	0.653338	0.601358
0	C	0.530057	0.404477	0.255024
0	C	0.467063	0.623135	0.69712
0	C	0.400718	0.351935	0.174202
0	C	0.596385	0.675695	0.777986
0	C	0.346773	0.254479	0.161936
0	C	0.650276	0.77319	0.790321
0	C	0.46283	0.213273	0.242989
0	C	0.53423	0.814369	0.709242
0	C	0.384705	0.2353	0.38486
0	C	0.612384	0.792335	0.567369
0	C	0.210339	0.256456	0.356142
0	C	0.786733	0.771157	0.596062
0	C	0.0490912	0.279316	0.163149
0	C	0.947947	0.748294	0.789125
0	C	0.0199886	0.175894	0.0157745
0	C	0.977114	0.851603	0.936678
0	C	0.164384	0.136438	0.929254
0	C	0.832617	0.891164	0.0230374
0	C	0.31549	0.173202	0.996092
0	C	0.681526	0.854438	0.956178
0	C	0.446276	0.13642	0.908717
0	C	0.550705	0.891207	0.043529
0	C	0.427158	0.0599226	0.758735
0	C	0.569818	0.967692	0.193505
0	C	0.273815	0.0187882	0.691855
0	C	0.723163	0.00890425	0.260392
0	C	0.14424	0.0580763	0.776866
0	C	0.852736	0.969594	0.175418
0	C	0.671811	0.0826879	0.681533
0	C	0.325197	0.944854	0.270642
0	C	0.129989	0.879659	0.476401
0	C	0.86698	0.148035	0.475936
0	C	0.303496	0.294779	0.70698
0	C	0.69323	0.733348	0.24561
0	C	0.869523	0.43855	0.505727
0	C	0.127362	0.588924	0.446725
0	H	0.692787	0.22189	0.174703
0	H	0.30421	0.805757	0.777428
0	H	0.696976	0.236714	0.353127
0	H	0.30012	0.790856	0.59899
0	H	0.581069	0.413551	0.464758
0	H	0.41577	0.61404	0.487391
0	H	0.57128	0.472414	0.25705
0	H	0.425943	0.555174	0.695042
0	H	0.326955	0.37594	0.108801
0	H	0.670177	0.651647	0.843326
0	H	0.469114	0.127486	0.168692
0	H	0.527937	0.900167	0.783526
0	H	0.39851	0.168893	0.400802
0	H	0.598624	0.858719	0.551469
0	H	0.949374	0.299252	0.236878
0	H	0.0476629	0.728431	0.715398
0	H	0.0571101	0.343033	0.142148
0	H	0.939861	0.684465	0.809868
0	H	0.920865	0.184167	0.947469
0	H	0.0759076	0.843092	0.0050526
0	H	0.979779	0.117695	0.0389835
0	H	0.0178409	0.909864	0.913754
0	H	0.562925	0.168437	0.960225
0	H	0.434088	0.859162	0.991997
0	H	0.0268639	0.028353	0.72659
0	H	0.970104	0.999387	0.225662
0	H	0.971522	0.48217	0.508905
0	H	0.0251516	0.545655	0.444037
0	H	0.797269	0.487445	0.598749
0	H	0.199347	0.539642	0.353655
0	H	0.908228	0.369258	0.505287
0	H	0.0889712	0.658109	0.446725
0	H	0.200392	0.286741	0.628569
0	H	0.796574	0.740763	0.32329
0	H	0.318487	0.217296	0.6896
0	H	0.678237	0.811142	0.264133
0	H	0.257653	0.341815	0.818596
0	H	0.738571	0.686864	0.133674
0	H	0.748995	0.106201	0.782147
0	H	0.248483	0.920991	0.169649
0	H	0.731569	0.0342933	0.578504
0	H	0.26488	0.993361	0.373295
0	H	0.620946	0.149363	0.680237
0	H	0.376027	0.878397	0.27258
0	H	0.0931356	0.850096	0.544422
0	H	0.904182	0.177415	0.407793
0	H	0.173109	0.816041	0.370677
0	H	0.823698	0.211761	0.581521
0	H	0.0368719	0.922903	0.457146
0	H	0.959804	0.104765	0.49543
