#******************************************
#
# CIF file created by Zeo++
# Zeo++ is an open source package to
# analyze microporous materials
#
#*******************************************

_cell_length_a		3.93399(0)
_cell_length_b		13.7384(0)
_cell_length_c		27.598(0)
_cell_angle_alpha		90(0)
_cell_angle_beta		90(0)
_cell_angle_gamma		90(0)

_symmetry_space_group_name_H-M		'P1'
_symmetry_Int_Tables_number		1
_symmetry_cell_setting		Monoclinic

loop_
_symmetry_equiv_pos_as_xyz
'+x,+y,+z'

loop_
_atom_site_label
_atom_site_type_symbol
_atom_site_fract_x
_atom_site_fract_y
_atom_site_fract_z
0	N	0.425679	0.50401	0.702155
0	N	0.0532411	0.500758	0.201173
0	N	0.557342	0.00295022	0.800409
0	N	0.924086	0.00175338	0.299908
0	C	0.424525	0.444145	0.78617
0	C	0.0589771	0.559889	0.285277
0	C	0.554824	0.944229	0.71637
0	C	0.920942	0.0597715	0.215632
0	C	0.43068	0.528538	0.815604
0	C	0.0535908	0.475333	0.31463
0	C	0.548288	0.028343	0.686852
0	C	0.925529	0.975499	0.186171
0	C	0.305511	0.523679	0.863154
0	C	0.180799	0.47997	0.362055
0	C	0.673625	0.0238457	0.639283
0	C	0.79914	0.979739	0.138701
0	C	0.179963	0.435456	0.8816
0	C	0.308063	0.568074	0.380456
0	C	0.800661	0.936162	0.620777
0	C	0.67054	0.0673763	0.120259
0	C	0.184371	0.352162	0.852936
0	C	0.303772	0.651455	0.351851
0	C	0.797085	0.852961	0.649557
0	C	0.674166	0.150669	0.148974
0	C	0.30699	0.356332	0.805194
0	C	0.179759	0.647434	0.304182
0	C	0.673954	0.856811	0.697294
0	C	0.798634	0.146922	0.196641
0	C	0.576348	0.441406	0.736177
0	C	0.904303	0.562791	0.235549
0	C	0.401508	0.941652	0.766299
0	C	0.0765066	0.0623636	0.265325
0	C	0.617601	0.617493	0.800268
0	C	0.858077	0.387415	0.29975
0	C	0.359114	0.116686	0.702405
0	C	0.124878	0.888441	0.201156
0	O	0.549034	0.696174	0.829238
0	O	0.925463	0.308213	0.328454
0	O	0.4285	0.195138	0.673354
0	O	0.0570487	0.809348	0.172395
0	O	0.858587	0.623366	0.772331
0	O	0.614224	0.382676	0.272241
0	O	0.119411	0.122157	0.730317
0	O	0.368334	0.883855	0.228818
0	O	0.847762	0.399595	0.727453
0	O	0.629775	0.603028	0.227447
0	O	0.126491	0.902051	0.774822
0	O	0.355027	0.10102	0.273246
0	C	0.542544	0.516614	0.653575
0	C	0.933557	0.487713	0.152833
0	C	0.439028	0.0159079	0.848895
0	C	0.04539	0.988348	0.348167
0	C	0.674719	0.437964	0.626514
0	C	0.797327	0.566018	0.125943
0	C	0.304661	0.937567	0.875906
0	C	0.183831	0.0662916	0.375053
0	C	0.767777	0.452129	0.57839
0	C	0.702599	0.551735	0.0779029
0	C	0.211356	0.951687	0.923999
0	C	0.278623	0.0521307	0.423092
0	C	0.73563	0.544748	0.557003
0	C	0.73434	0.459127	0.0564909
0	C	0.244515	0.0441719	0.945487
0	C	0.245358	0.95971	0.444657
0	C	0.606333	0.623738	0.583828
0	C	0.865825	0.380333	0.0832291
0	C	0.37485	0.122929	0.918605
0	C	0.113471	0.881132	0.417826
0	C	0.510376	0.609442	0.631757
0	C	0.966362	0.394969	0.130958
0	C	0.471365	0.108671	0.870674
0	C	0.0126318	0.895711	0.370074
0	N	0.848414	0.560049	0.506913
0	N	0.619773	0.443655	0.00647951
0	N	0.129847	0.0598644	0.995481
0	N	0.358345	0.944201	0.494756
0	O	0.840345	0.642697	0.490399
0	O	0.62695	0.361071	0.989997
0	O	0.138561	0.142442	0.0118343
0	O	0.348658	0.861752	0.511221
0	O	0.949232	0.489525	0.483964
0	O	0.518208	0.514243	0.983497
0	O	0.0260953	0.989539	0.0184812
0	O	0.461112	0.0146226	0.517734
0	H	0.224019	0.547877	0.713727
0	H	0.257452	0.457619	0.212397
0	H	0.760644	0.0462463	0.788845
0	H	0.717963	0.959218	0.288702
0	H	0.309939	0.587627	0.886873
0	H	0.1781	0.416024	0.385748
0	H	0.668025	0.0878204	0.615576
0	H	0.803539	0.915907	0.11499
0	H	0.0733453	0.432673	0.918272
0	H	0.415826	0.570853	0.417065
0	H	0.907943	0.933827	0.584124
0	H	0.562272	0.0696948	0.0836619
0	H	0.084199	0.283425	0.866752
0	H	0.404723	0.720145	0.365645
0	H	0.897746	0.784446	0.635699
0	H	0.572651	0.219139	0.135121
0	H	0.311362	0.291046	0.782776
0	H	0.177132	0.712639	0.281733
0	H	0.670097	0.791624	0.719749
0	H	0.800618	0.212072	0.219107
0	H	0.68459	0.755421	0.819775
0	H	0.785719	0.249731	0.319057
0	H	0.293822	0.254361	0.682712
0	H	0.195267	0.750773	0.181725
0	H	0.70577	0.366492	0.643343
0	H	0.765427	0.637414	0.142811
0	H	0.272004	0.866356	0.858884
0	H	0.217083	0.137442	0.358002
0	H	0.871666	0.391875	0.556898
0	H	0.598324	0.61195	0.0564147
0	H	0.106151	0.891844	0.94555
0	H	0.384166	0.112055	0.444589
0	H	0.579419	0.695317	0.566436
0	H	0.89123	0.30866	0.0658777
0	H	0.401774	0.194422	0.936008
0	H	0.0880477	0.809554	0.435133
0	H	0.405794	0.670321	0.652332
0	H	0.0741189	0.334376	0.151245
0	H	0.575943	0.169418	0.850007
0	H	0.904483	0.835274	0.349739
