#******************************************
#
# CIF file created by Zeo++
# Zeo++ is an open source package to
# analyze microporous materials
#
#*******************************************

_cell_length_a		34.4338(0)
_cell_length_b		7.43402(0)
_cell_length_c		22.1785(0)
_cell_angle_alpha		90(0)
_cell_angle_beta		104.122(0)
_cell_angle_gamma		90(0)

_symmetry_space_group_name_H-M		'P1'
_symmetry_Int_Tables_number		1
_symmetry_cell_setting		Monoclinic

loop_
_symmetry_equiv_pos_as_xyz
'+x,+y,+z'

loop_
_atom_site_label
_atom_site_type_symbol
_atom_site_fract_x
_atom_site_fract_y
_atom_site_fract_z
0	C	0.477906	0.985528	0.628946
0	C	0.419026	0.967904	0.359673
0	C	0.971201	0.49044	0.629068
0	C	0.92467	0.490279	0.358744
0	C	0.451708	0.139809	0.596595
0	C	0.445404	0.120588	0.392789
0	C	0.944782	0.647781	0.599595
0	C	0.951102	0.647591	0.388215
0	C	0.413869	0.165079	0.618389
0	C	0.482635	0.151094	0.3698
0	C	0.908435	0.67751	0.624858
0	C	0.987413	0.67751	0.362883
0	C	0.416491	0.147077	0.686714
0	C	0.479408	0.135576	0.301225
0	C	0.911984	0.64339	0.692782
0	C	0.983844	0.643353	0.294957
0	C	0.443341	0.991535	0.717305
0	C	0.452336	0.981243	0.270125
0	C	0.938066	0.480031	0.718159
0	C	0.95778	0.479901	0.269633
0	C	0.448018	0.995996	0.788042
0	C	0.446898	0.98983	0.19926
0	C	0.942889	0.463827	0.788737
0	C	0.952953	0.463503	0.199059
0	C	0.473059	0.836967	0.819788
0	C	0.421615	0.832143	0.166981
0	C	0.966772	0.295213	0.814565
0	C	0.929086	0.294794	0.1733
0	C	0.513671	0.824451	0.802356
0	C	0.381307	0.817954	0.185253
0	C	0.00748314	0.290021	0.797376
0	C	0.888367	0.289722	0.190464
0	C	0.507379	0.817827	0.730423
0	C	0.388173	0.807716	0.25721
0	C	0.00126452	0.304507	0.725535
0	C	0.894578	0.304343	0.262301
0	C	0.485049	0.993529	0.701177
0	C	0.411003	0.981509	0.287459
0	C	0.979408	0.484431	0.700992
0	C	0.916443	0.484284	0.286816
0	C	0.546795	0.785098	0.711204
0	C	0.348893	0.774838	0.276798
0	C	0.0408202	0.281451	0.705674
0	C	0.85501	0.281433	0.282144
0	C	0.567822	0.613645	0.741778
0	C	0.32744	0.604715	0.245759
0	C	0.0630651	0.108368	0.731896
0	C	0.832746	0.108396	0.255932
0	C	0.577321	0.629696	0.813471
0	C	0.317653	0.622904	0.174086
0	C	0.0715177	0.104601	0.803719
0	C	0.824297	0.104577	0.184113
0	C	0.535703	0.652755	0.829893
0	C	0.359115	0.64708	0.157229
0	C	0.0296243	0.113774	0.819665
0	C	0.866204	0.113499	0.1682
0	C	0.546015	0.626523	0.900848
0	C	0.348517	0.623238	0.0861752
0	C	0.0396057	0.0667275	0.889444
0	C	0.856237	0.0663307	0.0984339
0	C	0.581097	0.490387	0.913738
0	C	0.313448	0.48714	0.073085
0	C	0.0755636	0.935145	0.899086
0	C	0.82024	0.934976	0.0887849
0	C	0.591295	0.45294	0.850384
0	C	0.303541	0.447383	0.136482
0	C	0.086491	0.921659	0.835486
0	C	0.809269	0.921689	0.152362
0	C	0.605623	0.787014	0.835806
0	C	0.289238	0.780446	0.152785
0	C	0.0987993	0.26199	0.831009
0	C	0.797061	0.262061	0.156791
0	C	0.508928	0.154194	0.723779
0	C	0.387066	0.14324	0.266696
0	C	0.0044926	0.648888	0.728633
0	C	0.891348	0.648704	0.259179
0	C	0.633607	0.368787	0.855805
0	C	0.261276	0.362784	0.131097
0	C	0.130028	0.855642	0.838808
0	C	0.765703	0.855883	0.148947
0	C	0.634412	0.197636	0.896591
0	C	0.260625	0.1913	0.0904538
0	C	0.136929	0.685179	0.874122
0	C	0.758852	0.685248	0.113736
0	C	0.669982	0.490697	0.879735
0	C	0.224881	0.484253	0.106785
0	C	0.165127	0.98453	0.867137
0	C	0.730646	0.984866	0.120576
0	C	0.710351	0.419012	0.872133
0	C	0.184473	0.412316	0.114035
0	C	0.20555	0.891722	0.872691
0	C	0.690197	0.892217	0.114944
0	C	0.746341	0.540945	0.903941
0	C	0.148541	0.534413	0.0821765
0	C	0.240598	0.985487	0.918101
0	C	0.655231	0.985298	0.0691346
0	C	0.733061	0.733471	0.893916
0	C	0.161871	0.726885	0.0922801
0	C	0.252116	0.161469	0.891637
0	C	0.643401	0.161231	0.0952567
0	C	0.695968	0.976672	0.92446
0	C	0.199127	0.970022	0.0620935
0	C	0.244865	0.338202	0.922254
0	C	0.65028	0.337925	0.0643186
0	C	0.721403	0.826333	0.938476
0	C	0.173658	0.819885	0.0478752
0	C	0.286696	0.27096	0.926861
0	C	0.608584	0.269	0.0598144
0	C	0.784332	0.505674	0.888416
0	C	0.110518	0.499224	0.0976089
0	C	0.275687	0.87547	0.943707
0	C	0.620296	0.874618	0.0432758
0	C	0.669322	0.0860662	0.909787
0	C	0.225753	0.0795632	0.0770007
0	C	0.219586	0.452017	0.932315
0	C	0.675222	0.453127	0.0540281
0	O	0.382539	0.208233	0.582262
0	O	0.513966	0.197156	0.405357
0	O	0.877566	0.737585	0.59154
0	O	0.0182769	0.737815	0.396159
0	O	0.603385	0.59494	0.719258
0	O	0.291988	0.587209	0.268661
0	O	0.0996638	0.109369	0.711459
0	O	0.796136	0.109496	0.276345
0	O	0.630635	0.314936	0.792566
0	O	0.264182	0.309627	0.194296
0	O	0.128521	0.819981	0.774927
0	O	0.767121	0.820311	0.212843
0	C	0.52847	0.629826	0.523239
0	C	0.36905	0.640924	0.466272
0	C	0.0295019	0.157261	0.52424
0	C	0.866408	0.157653	0.463565
0	C	0.498231	0.499783	0.48424
0	C	0.399649	0.513576	0.505872
0	C	0.999882	0.0263499	0.484287
0	C	0.895991	0.0266335	0.503537
0	C	0.482626	0.562258	0.418286
0	C	0.415089	0.579111	0.571457
0	C	0.985312	0.0884989	0.418028
0	C	0.910538	0.0887694	0.569803
0	C	0.512412	0.636655	0.385161
0	C	0.385076	0.653196	0.60423
0	C	0.0156096	0.168133	0.386898
0	C	0.880215	0.168477	0.600874
0	C	0.541792	0.767769	0.426531
0	C	0.355128	0.780749	0.56224
0	C	0.0439581	0.300638	0.429295
0	C	0.851857	0.30087	0.558453
0	C	0.573407	0.835047	0.393419
0	C	0.323221	0.846832	0.594982
0	C	0.075955	0.372898	0.397783
0	C	0.819819	0.37296	0.589919
0	C	0.598455	0.984343	0.431999
0	C	0.297796	0.993944	0.55576
0	C	0.101034	0.519362	0.438015
0	C	0.794758	0.51946	0.549684
0	C	0.61836	0.922666	0.498607
0	C	0.278201	0.9297	0.489344
0	C	0.120387	0.452557	0.504144
0	C	0.775459	0.452716	0.483532
0	C	0.587421	0.836545	0.530817
0	C	0.309352	0.84343	0.457594
0	C	0.0886142	0.366221	0.534614
0	C	0.80725	0.366469	0.453082
0	C	0.562119	0.684557	0.49124
0	C	0.335144	0.694225	0.497946
0	C	0.0637036	0.215206	0.493802
0	C	0.832162	0.21546	0.493924
0	C	0.608921	0.774387	0.596611
0	C	0.28796	0.777781	0.392175
0	C	0.109029	0.299911	0.600254
0	C	0.786866	0.300128	0.387443
0	C	0.629324	0.932139	0.637186
0	C	0.267173	0.93309	0.350695
0	C	0.130304	0.452545	0.642381
0	C	0.765515	0.452585	0.345297
0	C	0.659434	0.0311247	0.606998
0	C	0.237017	0.0334441	0.380471
0	C	0.161739	0.547397	0.613911
0	C	0.734063	0.547166	0.373795
0	C	0.636025	0.0845868	0.539204
0	C	0.260413	0.0899208	0.447952
0	C	0.13895	0.609564	0.546696
0	C	0.756873	0.609655	0.44096
0	C	0.665574	0.210633	0.51819
0	C	0.230866	0.217188	0.468402
0	C	0.169582	0.733647	0.52753
0	C	0.726225	0.733677	0.460113
0	C	0.684968	0.317169	0.577894
0	C	0.211455	0.321328	0.408192
0	C	0.189961	0.831859	0.588573
0	C	0.705773	0.831565	0.399042
0	C	0.6715	0.224649	0.632427
0	C	0.224775	0.225829	0.354045
0	C	0.176021	0.735974	0.642075
0	C	0.719647	0.735464	0.345525
0	C	0.695174	0.908212	0.607987
0	C	0.201372	0.910537	0.380085
0	C	0.19605	0.417425	0.613254
0	C	0.699842	0.416841	0.374617
0	C	0.587565	0.519881	0.484924
0	C	0.310294	0.528164	0.504972
0	C	0.0896828	0.0521712	0.48749
0	C	0.80618	0.0523622	0.500161
0	C	0.701954	0.259738	0.696306
0	C	0.194087	0.258293	0.290213
0	C	0.206991	0.760463	0.70541
0	C	0.688559	0.759181	0.282252
0	C	0.700227	0.452834	0.7092
0	C	0.196139	0.450346	0.275973
0	C	0.208501	0.948793	0.724594
0	C	0.686789	0.947569	0.262993
0	C	0.744637	0.189803	0.699211
0	C	0.151363	0.190503	0.288185
0	C	0.248251	0.674752	0.709033
0	C	0.647416	0.672606	0.278909
0	C	0.774743	0.251532	0.758418
0	C	0.121142	0.251138	0.228937
0	C	0.279216	0.716118	0.76989
0	C	0.616252	0.713073	0.218195
0	C	0.817665	0.218355	0.754977
0	C	0.0782528	0.219093	0.232758
0	C	0.321572	0.684625	0.763213
0	C	0.574009	0.679036	0.225011
0	C	0.831518	0.0294586	0.758408
0	C	0.064074	0.0306531	0.228983
0	C	0.334439	0.495425	0.761052
0	C	0.561342	0.489218	0.226088
0	C	0.825372	0.917926	0.697793
0	C	0.0703001	0.917628	0.289253
0	C	0.327327	0.398874	0.69737
0	C	0.568921	0.388465	0.28904
0	C	0.864851	0.968225	0.732053
0	C	0.0308221	0.969938	0.255641
0	C	0.367095	0.441302	0.732062
0	C	0.528981	0.431691	0.25523
0	C	0.839462	0.359427	0.749923
0	C	0.0567287	0.360632	0.238327
0	C	0.343452	0.826307	0.759416
0	C	0.551973	0.819487	0.229678
0	C	0.800486	0.84298	0.651912
0	C	0.095213	0.840568	0.334618
0	C	0.301604	0.336005	0.649779
0	C	0.594876	0.323075	0.33586
0	O	0.447233	0.547104	0.391712
0	O	0.450516	0.566684	0.598132
0	O	0.950381	0.0683002	0.389776
0	O	0.945451	0.0684467	0.598121
0	O	0.652214	0.861485	0.695903
0	O	0.244205	0.859045	0.292612
0	O	0.15162	0.374158	0.701002
0	O	0.744192	0.37411	0.286696
0	O	0.688825	0.169777	0.746411
0	O	0.20672	0.164168	0.240391
0	O	0.191341	0.667637	0.754667
0	O	0.704244	0.667039	0.232964
0	H	0.464209	0.853502	0.612303
0	H	0.43296	0.835119	0.374796
0	H	0.957408	0.361313	0.60952
0	H	0.938462	0.361125	0.378278
0	H	0.506977	0.988397	0.615923
0	H	0.390262	0.968177	0.373685
0	H	0.999976	0.497983	0.61521
0	H	0.895902	0.497832	0.37262
0	H	0.468619	0.270053	0.604798
0	H	0.428319	0.250528	0.386574
0	H	0.96233	0.776507	0.606684
0	H	0.933546	0.776293	0.381208
0	H	0.444319	0.120138	0.545503
0	H	0.453594	0.0964057	0.443667
0	H	0.935553	0.630516	0.548426
0	H	0.960372	0.630187	0.439376
0	H	0.385944	0.130573	0.694456
0	H	0.509796	0.119743	0.292782
0	H	0.881674	0.627247	0.701458
0	H	0.0141478	0.627318	0.286246
0	H	0.427283	0.277687	0.709446
0	H	0.46856	0.26718	0.279335
0	H	0.924091	0.767748	0.718769
0	H	0.97171	0.767655	0.268967
0	H	0.427956	0.862127	0.69841
0	H	0.467815	0.851274	0.287776
0	H	0.921674	0.356454	0.695365
0	H	0.974187	0.35639	0.292461
0	H	0.418083	0.993513	0.798337
0	H	0.476593	0.988568	0.188157
0	H	0.913013	0.459556	0.799143
0	H	0.982825	0.459235	0.188644
0	H	0.462004	0.124143	0.807571
0	H	0.432806	0.118831	0.180861
0	H	0.957792	0.585226	0.812552
0	H	0.938033	0.58481	0.175205
0	H	0.478164	0.849841	0.870854
0	H	0.416062	0.847645	0.115951
0	H	0.97145	0.291141	0.86569
0	H	0.924419	0.290521	0.122179
0	H	0.456011	0.710407	0.807301
0	H	0.438677	0.70521	0.178352
0	H	0.949157	0.17336	0.796762
0	H	0.946702	0.172987	0.191173
0	H	0.531998	0.945093	0.820802
0	H	0.362879	0.939054	0.167812
0	H	0.025875	0.40648	0.819821
0	H	0.86999	0.406188	0.167988
0	H	0.486928	0.70249	0.711882
0	H	0.408498	0.69119	0.274649
0	H	0.980986	0.191754	0.703462
0	H	0.914844	0.191578	0.284406
0	H	0.567282	0.901596	0.723287
0	H	0.328518	0.891932	0.265251
0	H	0.0606502	0.399129	0.720065
0	H	0.835197	0.399152	0.267729
0	H	0.541067	0.770461	0.660015
0	H	0.354771	0.758906	0.327968
0	H	0.0347968	0.277107	0.654206
0	H	0.861022	0.277156	0.333611
0	H	0.549323	0.492071	0.72534
0	H	0.345678	0.482095	0.261589
0	H	0.046189	0.986438	0.711087
0	H	0.8496	0.986432	0.276758
0	H	0.516183	0.536703	0.808875
0	H	0.378683	0.530493	0.17759
0	H	0.0105502	0.00190356	0.794291
0	H	0.885252	0.00159204	0.193609
0	H	0.554963	0.754122	0.925839
0	H	0.33947	0.751531	0.0617658
0	H	0.0475066	0.187821	0.918494
0	H	0.84838	0.187389	0.0693524
0	H	0.520264	0.575624	0.916922
0	H	0.37416	0.57333	0.0696114
0	H	0.0138962	0.00496549	0.902857
0	H	0.881936	0.00434151	0.0850565
0	H	0.607226	0.54612	0.947683
0	H	0.287201	0.543557	0.0395804
0	H	0.100997	0.985233	0.935629
0	H	0.794834	0.98515	0.0522129
0	H	0.572695	0.365425	0.934202
0	H	0.321743	0.362984	0.0520117
0	H	0.067787	0.802248	0.914746
0	H	0.827982	0.801978	0.073154
0	H	0.570364	0.345026	0.825655
0	H	0.324503	0.338892	0.160619
0	H	0.0673362	0.814206	0.807062
0	H	0.828375	0.814131	0.180808
0	H	0.592192	0.917558	0.819271
0	H	0.302539	0.910372	0.170252
0	H	0.0840906	0.391267	0.816187
0	H	0.811779	0.391304	0.171653
0	H	0.614891	0.794008	0.886689
0	H	0.280015	0.790256	0.101975
0	H	0.106951	0.260271	0.881834
0	H	0.788967	0.260407	0.105964
0	H	0.633079	0.774222	0.818773
0	H	0.261772	0.765425	0.169664
0	H	0.126478	0.258087	0.814399
0	H	0.769345	0.258239	0.173297
0	H	0.5391	0.166861	0.719086
0	H	0.357699	0.158224	0.274587
0	H	0.0332204	0.651051	0.715512
0	H	0.86263	0.650862	0.272329
0	H	0.497005	0.263943	0.744785
0	H	0.398118	0.251523	0.24379
0	H	0.988925	0.774687	0.711953
0	H	0.906912	0.774538	0.275829
0	H	0.628447	0.238056	0.94212
0	H	0.266726	0.23173	0.0450186
0	H	0.143889	0.682709	0.924156
0	H	0.751782	0.682435	0.0637462
0	H	0.608283	0.111612	0.872767
0	H	0.286736	0.105522	0.114458
0	H	0.135205	0.559351	0.849671
0	H	0.760802	0.559554	0.138298
0	H	0.663937	0.62131	0.854171
0	H	0.230746	0.61506	0.132237
0	H	0.163061	0.105396	0.836915
0	H	0.732711	0.105833	0.150747
0	H	0.672121	0.523188	0.929214
0	H	0.222852	0.516189	0.0573208
0	H	0.161898	0.0330223	0.912778
0	H	0.733912	0.0332687	0.0749434
0	H	0.709223	0.40548	0.821685
0	H	0.185503	0.398402	0.16443
0	H	0.21153	0.881307	0.825163
0	H	0.684065	0.882583	0.162384
0	H	0.716265	0.281815	0.89141
0	H	0.178618	0.275331	0.0945457
0	H	0.204273	0.748623	0.887117
0	H	0.691527	0.748837	0.100834
0	H	0.753841	0.510023	0.955907
0	H	0.141083	0.50354	0.0302209
0	H	0.230544	0.0185341	0.962585
0	H	0.665457	0.0183223	0.0247915
0	H	0.729793	0.785356	0.846902
0	H	0.165075	0.778735	0.139289
0	H	0.244797	0.163314	0.840414
0	H	0.650698	0.163916	0.146477
0	H	0.727298	0.779037	0.98678
0	H	0.167825	0.772889	0.999509
0	H	0.305248	0.347043	0.902466
0	H	0.589853	0.344649	0.0840295
0	H	0.884923	0.649073	0.208292
0	H	0.0108952	0.649313	0.77952
0	H	0.304184	0.224671	0.972279
0	H	0.591209	0.221431	0.0144985
0	H	0.790778	0.36716	0.879572
0	H	0.10408	0.360755	0.106567
0	H	0.271628	0.730853	0.942023
0	H	0.624497	0.730061	0.045086
0	H	0.619868	0.489725	0.742215
0	H	0.27502	0.483833	0.245269
0	H	0.116544	0.000434416	0.730784
0	H	0.779232	0.000716225	0.256993
0	H	0.656342	0.261021	0.784745
0	H	0.238463	0.254924	0.202084
0	H	0.156183	0.766509	0.76804
0	H	0.739486	0.766808	0.21959
0	H	0.512645	0.75097	0.533839
0	H	0.384465	0.76288	0.455339
0	H	0.0131272	0.277403	0.534261
0	H	0.882798	0.277851	0.453633
0	H	0.541853	0.566989	0.569001
0	H	0.35595	0.576103	0.420767
0	H	0.0424885	0.0942494	0.57012
0	H	0.853467	0.094803	0.417642
0	H	0.51238	0.364677	0.482901
0	H	0.385754	0.378113	0.507824
0	H	0.0142893	0.891897	0.483153
0	H	0.881558	0.89223	0.504648
0	H	0.472971	0.477842	0.506874
0	H	0.424899	0.491007	0.483263
0	H	0.974097	0.00317476	0.50559
0	H	0.921782	0.00335679	0.482256
0	H	0.496719	0.703521	0.340991
0	H	0.400644	0.723237	0.647956
0	H	0.000162807	0.235021	0.342359
0	H	0.895651	0.235509	0.645394
0	H	0.528887	0.520666	0.371318
0	H	0.369091	0.537093	0.618971
0	H	0.0328757	0.0542156	0.373392
0	H	0.862957	0.0545851	0.614405
0	H	0.524048	0.887534	0.435168
0	H	0.372347	0.901597	0.552986
0	H	0.0255466	0.418246	0.437704
0	H	0.870248	0.4186	0.550073
0	H	0.592758	0.722942	0.385757
0	H	0.304171	0.733853	0.602887
0	H	0.0953152	0.262326	0.388923
0	H	0.800451	0.262331	0.598709
0	H	0.558645	0.887354	0.346724
0	H	0.337699	0.900817	0.641549
0	H	0.0613792	0.4301	0.351708
0	H	0.834358	0.430052	0.636027
0	H	0.621642	0.0319473	0.408905
0	H	0.274389	0.0408783	0.578519
0	H	0.124467	0.568259	0.415654
0	H	0.771289	0.568276	0.57199
0	H	0.578815	0.102497	0.433231
0	H	0.317091	0.113117	0.554203
0	H	0.0816004	0.637895	0.439753
0	H	0.814188	0.638052	0.548002
0	H	0.642205	0.822941	0.496933
0	H	0.25448	0.829565	0.491263
0	H	0.143738	0.350895	0.501775
0	H	0.752109	0.350988	0.485869
0	H	0.56571	0.944959	0.535587
0	H	0.330733	0.952617	0.452157
0	H	0.066911	0.474826	0.539112
0	H	0.828948	0.475137	0.448613
0	H	0.63177	0.670699	0.594704
0	H	0.265342	0.6736	0.394769
0	H	0.131056	0.192505	0.598314
0	H	0.764877	0.192522	0.389373
0	H	0.587959	0.705918	0.620088
0	H	0.309045	0.708861	0.369064
0	H	0.0870224	0.233873	0.622399
0	H	0.808897	0.234291	0.365301
0	H	0.606885	0.0265598	0.647907
0	H	0.289387	0.0272444	0.339149
0	H	0.108565	0.550312	0.653383
0	H	0.787208	0.550527	0.334255
0	H	0.609757	0.169951	0.543073
0	H	0.286623	0.175027	0.4436
0	H	0.113273	0.697563	0.551339
0	H	0.782524	0.697719	0.436258
0	H	0.68812	0.134369	0.500903
0	H	0.208344	0.14199	0.486099
0	H	0.191474	0.656207	0.509149
0	H	0.704372	0.656211	0.478574
0	H	0.650507	0.299288	0.479841
0	H	0.245949	0.30736	0.506287
0	H	0.155237	0.828129	0.490554
0	H	0.740571	0.828384	0.497022
0	H	0.675661	0.459466	0.574069
0	H	0.220846	0.463547	0.411221
0	H	0.181717	0.975441	0.586849
0	H	0.714	0.975162	0.400667
0	H	0.717929	0.31732	0.586091
0	H	0.1785	0.322049	0.40013
0	H	0.222859	0.827702	0.596508
0	H	0.672881	0.82736	0.391213
0	H	0.643155	0.290871	0.637441
0	H	0.253042	0.291614	0.348452
0	H	0.148348	0.806146	0.648344
0	H	0.747245	0.80583	0.339047
0	H	0.709512	0.86773	0.656007
0	H	0.187021	0.868477	0.332241
0	H	0.210069	0.371072	0.660725
0	H	0.685766	0.370411	0.327175
0	H	0.685796	0.784016	0.581699
0	H	0.21085	0.787207	0.406847
0	H	0.185205	0.296791	0.58569
0	H	0.710784	0.296259	0.402155
0	H	0.717716	0.972624	0.587976
0	H	0.178829	0.975683	0.399897
0	H	0.219058	0.478676	0.593497
0	H	0.676858	0.477863	0.394482
0	H	0.612958	0.556226	0.465751
0	H	0.284937	0.563175	0.524408
0	H	0.11538	0.0912325	0.46948
0	H	0.780449	0.0913013	0.518106
0	H	0.599718	0.45509	0.53004
0	H	0.298149	0.462156	0.460086
0	H	0.101314	0.985415	0.532366
0	H	0.794596	0.985655	0.455264
0	H	0.56993	0.417474	0.454291
0	H	0.328382	0.42706	0.535654
0	H	0.0725829	0.950717	0.455726
0	H	0.823266	0.950885	0.53193
0	H	0.71991	0.546731	0.695721
0	H	0.17642	0.546203	0.288314
0	H	0.235963	0.0139611	0.745966
0	H	0.659224	0.0120247	0.241699
0	H	0.677703	0.506662	0.72983
0	H	0.219055	0.501603	0.255624
0	H	0.182402	0.0323002	0.714608
0	H	0.712806	0.0316153	0.272837
0	H	0.744057	0.0405485	0.69762
0	H	0.151692	0.0413282	0.290452
0	H	0.24464	0.526485	0.704048
0	H	0.651204	0.524411	0.283957
0	H	0.754046	0.234882	0.657276
0	H	0.142259	0.237992	0.330103
0	H	0.259182	0.721115	0.668567
0	H	0.636551	0.718733	0.319465
0	H	0.76896	0.1788	0.799099
0	H	0.126772	0.177133	0.188396
0	H	0.273588	0.630722	0.80788
0	H	0.622021	0.628607	0.180082
0	H	0.770141	0.396388	0.767072
0	H	0.125788	0.395644	0.219792
0	H	0.275813	0.85691	0.784755
0	H	0.619264	0.854264	0.203414
0	H	0.824211	0.955923	0.797568
0	H	0.0709893	0.957766	0.189402
0	H	0.327143	0.413091	0.798226
0	H	0.568408	0.409749	0.188086
0	H	0.634848	0.777466	0.714074
0	H	0.261406	0.772883	0.274952
0	H	0.132645	0.292595	0.716825
0	H	0.763168	0.292618	0.270849
0	H	0.677393	0.0466854	0.733239
0	H	0.218465	0.0422287	0.254406
0	H	0.179766	0.545004	0.740111
0	H	0.715924	0.544517	0.247502
