#******************************************
#
# CIF file created by Zeo++
# Zeo++ is an open source package to
# analyze microporous materials
#
#*******************************************

_cell_length_a		15.4458(0)
_cell_length_b		15.4409(0)
_cell_length_c		9.48828(0)
_cell_angle_alpha		90(0)
_cell_angle_beta		90(0)
_cell_angle_gamma		90(0)

_symmetry_space_group_name_H-M		'P1'
_symmetry_Int_Tables_number		1
_symmetry_cell_setting		Monoclinic

loop_
_symmetry_equiv_pos_as_xyz
'+x,+y,+z'

loop_
_atom_site_label
_atom_site_type_symbol
_atom_site_fract_x
_atom_site_fract_y
_atom_site_fract_z
0	P	0.506533	0.914013	0.225362
0	P	0.519902	0.112452	0.225277
0	P	0.913914	0.519938	0.74309
0	P	0.112298	0.506579	0.743118
0	O	0.481089	0.906733	0.0770915
0	O	0.545359	0.11962	0.0770087
0	O	0.906648	0.545488	0.891307
0	O	0.119528	0.481069	0.891348
0	O	0.605801	0.883527	0.263115
0	O	0.42056	0.1429	0.262874
0	O	0.883449	0.420599	0.70555
0	O	0.142823	0.605875	0.705474
0	O	0.439231	0.8629	0.328481
0	O	0.587172	0.163644	0.328357
0	O	0.862778	0.587164	0.639858
0	O	0.163386	0.439272	0.63997
0	C	0.409319	0.899534	0.454895
0	C	0.617032	0.126982	0.454799
0	C	0.899367	0.617069	0.513401
0	C	0.12679	0.409386	0.513528
0	C	0.319601	0.916313	0.465412
0	C	0.70673	0.110197	0.465396
0	C	0.91604	0.706834	0.502794
0	C	0.110083	0.319632	0.502996
0	C	0.289253	0.943072	0.597624
0	C	0.737028	0.0834156	0.597623
0	C	0.94273	0.737155	0.37053
0	C	0.083384	0.289271	0.370762
0	H	0.220848	0.957948	0.611986
0	H	0.805413	0.0685282	0.612081
0	H	0.957548	0.805598	0.356057
0	H	0.0685551	0.220838	0.356366
0	C	0.344248	0.951309	0.71469
0	C	0.681964	0.0751565	0.714603
0	C	0.951004	0.682106	0.253535
0	C	0.0751453	0.344278	0.253701
0	C	0.432778	0.934218	0.699639
0	C	0.593452	0.0922797	0.699471
0	C	0.934034	0.593536	0.268707
0	C	0.0921786	0.432845	0.268766
0	H	0.475406	0.940101	0.79152
0	H	0.550778	0.0863946	0.791279
0	H	0.939951	0.550884	0.176863
0	H	0.0863129	0.475449	0.176842
0	C	0.46681	0.909308	0.569029
0	C	0.559478	0.117215	0.568855
0	C	0.909193	0.559516	0.399377
0	C	0.117006	0.466894	0.39939
0	C	0.309564	0.978844	0.85455
0	C	0.716579	0.0475707	0.854456
0	C	0.978442	0.716733	0.1136
0	C	0.0476295	0.309604	0.113854
0	H	0.247135	0.948408	0.878731
0	H	0.778948	0.0780685	0.879012
0	H	0.947785	0.779028	0.0890335
0	H	0.0777142	0.246945	0.0897534
0	H	0.300724	0.0494213	0.859123
0	H	0.7255	0.97699	0.858934
0	H	0.0489818	0.725856	0.109068
0	H	0.977029	0.301184	0.10901
0	H	0.354268	0.961397	0.941436
0	H	0.671753	0.0648982	0.941366
0	H	0.961218	0.671839	0.0268226
0	H	0.0654998	0.354141	0.0268806
0	C	0.257923	0.905989	0.339611
0	C	0.768482	0.120476	0.339628
0	C	0.905643	0.768591	0.628521
0	C	0.120453	0.257892	0.628741
0	C	0.163169	0.926784	0.379894
0	C	0.863211	0.0997113	0.380077
0	C	0.92641	0.863364	0.588163
0	C	0.099763	0.163109	0.588316
0	H	0.155486	0.994337	0.412603
0	H	0.870905	0.032145	0.412682
0	H	0.993965	0.87108	0.555679
0	H	0.0321929	0.155345	0.555948
0	H	0.140214	0.884915	0.465312
0	H	0.886084	0.141537	0.465621
0	H	0.884639	0.886257	0.502585
0	H	0.141487	0.140299	0.502617
0	H	0.11998	0.915973	0.289992
0	H	0.906455	0.110595	0.290268
0	H	0.915447	0.9066	0.677995
0	H	0.110822	0.119828	0.678059
0	C	0.260853	0.811511	0.288298
0	C	0.765558	0.214928	0.288188
0	C	0.811174	0.765613	0.67974
0	C	0.214901	0.260917	0.680044
0	H	0.326625	0.791762	0.257958
0	H	0.699784	0.234686	0.257955
0	H	0.791488	0.699825	0.710148
0	H	0.234527	0.326683	0.710667
0	H	0.21912	0.801458	0.196696
0	H	0.807229	0.224907	0.196464
0	H	0.801047	0.807425	0.771245
0	H	0.225054	0.219014	0.77143
0	H	0.239976	0.766625	0.371271
0	H	0.786531	0.259841	0.371062
0	H	0.766312	0.7864	0.596684
0	H	0.259772	0.240261	0.596906
0	C	0.285533	0.968804	0.221515
0	C	0.740952	0.0576033	0.221569
0	C	0.968402	0.741046	0.746703
0	C	0.0576202	0.2854	0.746844
0	H	0.3339	0.939756	0.151121
0	H	0.692476	0.0865284	0.151246
0	H	0.939384	0.692591	0.816986
0	H	0.0865777	0.333848	0.817215
0	H	0.312221	0.0294214	0.263785
0	H	0.714439	0.996917	0.263849
0	H	0.029062	0.714464	0.704512
0	H	0.996966	0.311975	0.704607
0	H	0.2308	0.98647	0.154096
0	H	0.795681	0.0400864	0.154033
0	H	0.985927	0.795802	0.814214
0	H	0.0400707	0.230614	0.81428
0	C	0.563059	0.899641	0.554812
0	C	0.463223	0.126813	0.554716
0	C	0.899686	0.463229	0.413761
0	C	0.126546	0.563183	0.413685
0	H	0.589428	0.955813	0.493534
0	H	0.436891	0.0706178	0.493452
0	H	0.955848	0.436989	0.475169
0	H	0.070372	0.589482	0.474916
0	H	0.594669	0.907576	0.659998
0	H	0.431671	0.118848	0.659895
0	H	0.90775	0.431475	0.308654
0	H	0.118531	0.594815	0.308451
0	C	0.591977	0.815561	0.491466
0	C	0.434193	0.210852	0.491406
0	C	0.815637	0.434219	0.477017
0	C	0.210593	0.592194	0.476889
0	C	0.614389	0.809052	0.348084
0	C	0.411736	0.217308	0.348004
0	C	0.809075	0.411813	0.620443
0	C	0.217161	0.614606	0.620285
0	C	0.653046	0.734269	0.28984
0	C	0.372994	0.291996	0.289796
0	C	0.734338	0.373174	0.678576
0	C	0.291929	0.653292	0.67841
0	C	0.66251	0.663349	0.380617
0	C	0.36335	0.362892	0.380588
0	C	0.66348	0.363605	0.587736
0	C	0.362747	0.662843	0.587492
0	H	0.692352	0.603537	0.342577
0	H	0.333344	0.422592	0.342481
0	H	0.603675	0.333764	0.625741
0	H	0.422522	0.692741	0.625527
0	C	0.636299	0.666176	0.522376
0	C	0.389625	0.360158	0.522304
0	C	0.666347	0.389727	0.44593
0	C	0.359874	0.636694	0.445721
0	C	0.600925	0.742508	0.577281
0	C	0.425081	0.283861	0.577238
0	C	0.74268	0.425115	0.391096
0	C	0.283533	0.601286	0.390943
0	H	0.581577	0.74601	0.687572
0	H	0.444397	0.280401	0.687529
0	H	0.746234	0.444384	0.280743
0	H	0.279993	0.581987	0.280608
0	C	0.648333	0.588958	0.614635
0	C	0.377595	0.437385	0.614537
0	C	0.589218	0.377556	0.353603
0	C	0.436987	0.648804	0.353321
0	H	0.716633	0.567492	0.613235
0	H	0.309247	0.45874	0.613349
0	H	0.567827	0.309194	0.355069
0	H	0.458556	0.717113	0.354975
0	H	0.60947	0.53351	0.578544
0	H	0.416314	0.492823	0.578247
0	H	0.533722	0.416386	0.389508
0	H	0.492383	0.609783	0.389063
0	H	0.631276	0.601061	0.725085
0	H	0.394838	0.425357	0.724929
0	H	0.601342	0.39454	0.243106
0	H	0.42476	0.631975	0.242797
0	C	0.6858	0.730837	0.137184
0	C	0.340281	0.295377	0.137101
0	C	0.730917	0.34034	0.831229
0	C	0.295347	0.686075	0.831012
0	C	0.608623	0.739937	0.0354451
0	C	0.417513	0.28626	0.0354972
0	C	0.740011	0.417482	0.933089
0	C	0.286203	0.608902	0.932799
0	H	0.588119	0.807475	0.0219258
0	H	0.438049	0.21872	0.0221069
0	H	0.807513	0.438056	0.946467
0	H	0.218643	0.58851	0.946463
0	H	0.552525	0.702816	0.0715855
0	H	0.473585	0.323424	0.0716861
0	H	0.702799	0.473577	0.897128
0	H	0.323178	0.552711	0.896619
0	H	0.625299	0.71665	0.929849
0	H	0.400869	0.309467	0.929856
0	H	0.716839	0.400683	0.0386944
0	H	0.309578	0.625574	0.0383451
0	C	0.751433	0.804971	0.11615
0	C	0.274648	0.221239	0.116176
0	C	0.80503	0.274697	0.852114
0	C	0.221271	0.751758	0.851937
0	H	0.806418	0.798035	0.188497
0	H	0.219619	0.22818	0.188371
0	H	0.798187	0.219763	0.779666
0	H	0.228146	0.80669	0.77949
0	H	0.721992	0.868526	0.135898
0	H	0.304078	0.157687	0.135798
0	H	0.86857	0.304201	0.83254
0	H	0.157713	0.722301	0.832421
0	H	0.776879	0.805185	0.00856559
0	H	0.249172	0.221021	0.0085107
0	H	0.805233	0.249129	0.959676
0	H	0.221105	0.777321	0.959527
0	C	0.732029	0.644708	0.104426
0	C	0.294052	0.381475	0.104165
0	C	0.644827	0.29406	0.863906
0	C	0.381481	0.732296	0.863759
0	H	0.688158	0.589246	0.109548
0	H	0.337908	0.436955	0.109337
0	H	0.589363	0.337932	0.858918
0	H	0.436879	0.68833	0.858916
0	H	0.78602	0.63261	0.177077
0	H	0.239987	0.393606	0.176653
0	H	0.63273	0.240126	0.791128
0	H	0.393683	0.786157	0.790874
0	H	0.760751	0.645205	0.99856
0	H	0.265419	0.380922	0.998225
0	H	0.645341	0.265223	0.969695
0	H	0.380956	0.761168	0.969487
0	O	0.513198	0.0132449	0.28967
0	O	0.0131327	0.513283	0.67878
