#******************************************
#
# CIF file created by Zeo++
# Zeo++ is an open source package to
# analyze microporous materials
#
#*******************************************

_cell_length_a		23.6933(0)
_cell_length_b		6.5643(0)
_cell_length_c		25.0221(0)
_cell_angle_alpha		90(0)
_cell_angle_beta		108.378(0)
_cell_angle_gamma		90(0)

_symmetry_space_group_name_H-M		'P1'
_symmetry_Int_Tables_number		1
_symmetry_cell_setting		Monoclinic

loop_
_symmetry_equiv_pos_as_xyz
'+x,+y,+z'

loop_
_atom_site_label
_atom_site_type_symbol
_atom_site_fract_x
_atom_site_fract_y
_atom_site_fract_z
0	C	0.185226	0.731351	0.27243
0	C	0.834717	0.739914	0.240931
0	C	0.813627	0.283437	0.74802
0	C	0.164178	0.275579	0.779506
0	C	0.120379	0.731699	0.258475
0	C	0.899476	0.738055	0.253745
0	C	0.878463	0.283143	0.761948
0	C	0.0994115	0.277232	0.76668
0	C	0.0261889	0.731271	0.184945
0	C	0.993506	0.737249	0.328742
0	C	0.972702	0.283251	0.835441
0	C	0.00540644	0.277261	0.691645
0	H	0.0119936	0.589386	0.201403
0	H	0.00884584	0.59421	0.313866
0	H	0.98695	0.425025	0.818973
0	H	0.989948	0.420185	0.706468
0	H	0.0135523	0.867261	0.205115
0	H	0.00688495	0.871497	0.308488
0	H	0.985276	0.14714	0.815273
0	H	0.992112	0.142928	0.711931
0	C	0.00547207	0.744136	0.121511
0	C	0.0114256	0.755048	0.39213
0	C	0.993409	0.270381	0.898875
0	C	0.987506	0.259188	0.628264
0	H	0.957783	0.781402	0.106713
0	H	0.0581992	0.802987	0.408621
0	H	0.0411242	0.233477	0.913686
0	H	0.940617	0.212594	0.611752
0	H	0.0112235	0.600639	0.101205
0	H	0.00729526	0.610262	0.412482
0	H	0.987543	0.413741	0.919188
0	H	0.992015	0.403528	0.607881
0	H	0.0292676	0.863998	0.10672
0	H	0.984174	0.869432	0.40477
0	H	0.969676	0.150274	0.913646
0	H	0.0144893	0.143719	0.615679
0	C	0.228541	0.750837	0.326058
0	C	0.789562	0.760769	0.188509
0	C	0.770314	0.263948	0.694396
0	C	0.209345	0.254777	0.831923
0	C	0.223404	0.785863	0.381939
0	C	0.790982	0.795026	0.131313
0	C	0.775422	0.228942	0.638504
0	C	0.20795	0.22041	0.889122
0	C	0.189562	0.653957	0.403972
0	C	0.826537	0.673309	0.108416
0	C	0.809197	0.360998	0.616428
0	C	0.172558	0.342398	0.912143
0	H	0.165471	0.526084	0.378143
0	H	0.85615	0.556908	0.134751
0	H	0.833287	0.488902	0.642248
0	H	0.143041	0.459206	0.885899
0	C	0.186407	0.686687	0.458304
0	C	0.824199	0.701089	0.0522262
0	C	0.81231	0.328307	0.562083
0	C	0.174936	0.314293	0.96833
0	H	0.160893	0.581206	0.475758
0	H	0.850112	0.601032	0.0335461
0	H	0.837752	0.433918	0.54458
0	H	0.149127	0.41444	0.987104
0	C	0.216039	0.850233	0.490594
0	C	0.787605	0.849734	0.01898
0	C	0.782717	0.164654	0.529821
0	C	0.211404	0.165073	0.00145399
0	H	0.214233	0.875994	0.533341
0	H	0.784681	0.870413	0.974693
0	H	0.784484	0.138915	0.487061
0	H	0.214349	0.144176	0.0457381
0	C	0.249162	0.983157	0.467834
0	C	0.753303	0.974097	0.0426874
0	C	0.749655	0.031612	0.55262
0	C	0.245518	0.0404089	0.977617
0	C	0.252466	0.953897	0.413395
0	C	0.755383	0.950256	0.0989451
0	C	0.746379	0.060879	0.607065
0	C	0.243396	0.0645916	0.921357
0	H	0.277004	0.0630196	0.395698
0	H	0.729669	0.0532933	0.117145
0	H	0.721866	0.951698	0.624775
0	H	0.268966	0.96132	0.903058
0	C	0.34212	0.743669	0.355398
0	C	0.675893	0.749083	0.164353
0	C	0.656733	0.271044	0.665031
0	C	0.323006	0.266213	0.856061
0	C	0.360328	0.585914	0.395494
0	C	0.655373	0.578433	0.129337
0	C	0.638526	0.428873	0.624948
0	C	0.343629	0.436855	0.891053
0	H	0.329997	0.460434	0.396122
0	H	0.685379	0.450765	0.129882
0	H	0.668857	0.554392	0.624348
0	H	0.313703	0.564798	0.890481
0	C	0.417025	0.591835	0.434225
0	C	0.596929	0.574054	0.0941164
0	C	0.581843	0.422953	0.586207
0	C	0.402072	0.44081	0.926297
0	H	0.433036	0.471103	0.465428
0	H	0.579582	0.442707	0.0673071
0	H	0.565833	0.543681	0.555004
0	H	0.419512	0.57212	0.953098
0	C	0.455133	0.756103	0.432778
0	C	0.559402	0.742306	0.0933162
0	C	0.543746	0.258613	0.587612
0	C	0.439467	0.272112	0.927162
0	C	0.437235	0.912635	0.392833
0	C	0.579836	0.912781	0.127814
0	C	0.561657	0.101904	0.627502
0	C	0.418927	0.101663	0.892696
0	H	0.466554	0.0390284	0.391555
0	H	0.55117	0.0429865	0.127233
0	H	0.532364	0.975384	0.628722
0	H	0.447481	0.971102	0.893337
0	C	0.380386	0.905012	0.353708
0	C	0.63829	0.914718	0.163887
0	C	0.6185	0.10954	0.666654
0	C	0.360489	0.100178	0.856582
0	H	0.365915	0.026207	0.32227
0	H	0.654426	0.0465655	0.191274
0	H	0.632978	0.988132	0.698037
0	H	0.344289	0.96837	0.829202
0	C	0.551973	0.906205	0.477507
0	C	0.460468	0.881812	0.0528798
0	C	0.446899	0.108543	0.542879
0	C	0.538383	0.132331	0.967465
0	H	0.591205	0.849214	0.510965
0	H	0.419058	0.816766	0.0243497
0	H	0.407708	0.16534	0.509338
0	H	0.579818	0.19724	0.995994
0	H	0.535463	0.0489921	0.489782
0	H	0.473501	0.0197141	0.03505
0	H	0.463435	0.965611	0.530714
0	H	0.525395	0.994196	0.985223
0	H	0.561868	0.922978	0.43781
0	H	0.455931	0.911821	0.0944067
0	H	0.436913	0.092118	0.582539
0	H	0.542848	0.10279	0.925889
0	C	0.160715	0.776719	0.767399
0	C	0.816787	0.783271	0.758676
0	C	0.838231	0.238621	0.25312
0	C	0.182175	0.231563	0.26174
0	C	0.101995	0.777417	0.775295
0	C	0.87551	0.782644	0.750825
0	C	0.896932	0.237825	0.2452
0	C	0.123413	0.232232	0.269536
0	C	0.0491619	0.776031	0.843295
0	C	0.928779	0.772874	0.68302
0	C	0.949698	0.238491	0.177134
0	C	0.0700419	0.24164	0.337252
0	H	0.0233333	0.90975	0.821315
0	H	0.95533	0.904368	0.705556
0	H	0.975472	0.104666	0.199109
0	H	0.043534	0.110169	0.314654
0	H	0.0249657	0.632784	0.826461
0	H	0.952099	0.62802	0.699627
0	H	0.97398	0.381634	0.19393
0	H	0.0467042	0.386483	0.320665
0	C	0.0685163	0.79305	0.906619
0	C	0.909823	0.792493	0.619752
0	C	0.930261	0.221315	0.113811
0	C	0.088917	0.221717	0.400508
0	H	0.0296306	0.818331	0.920906
0	H	0.948387	0.828619	0.605835
0	H	0.969133	0.197041	0.0994409
0	H	0.050239	0.186804	0.414378
0	H	0.0997196	0.920169	0.921461
0	H	0.876668	0.914134	0.605037
0	H	0.899289	0.0935329	0.0990549
0	H	0.121757	0.0991222	0.415186
0	H	0.0907004	0.65411	0.927462
0	H	0.890416	0.65158	0.598045
0	H	0.907759	0.359785	0.0929632
0	H	0.108663	0.362128	0.422286
0	C	0.173995	0.793238	0.716276
0	C	0.803473	0.799206	0.809906
0	C	0.824914	0.222021	0.304225
0	C	0.195467	0.215634	0.210505
0	C	0.136191	0.824953	0.658323
0	C	0.84321	0.82803	0.867286
0	C	0.862684	0.189996	0.362182
0	C	0.155743	0.186846	0.153118
0	C	0.0925104	0.681374	0.63157
0	C	0.886151	0.678949	0.891615
0	C	0.906388	0.333392	0.389035
0	C	0.11285	0.33602	0.128747
0	H	0.0861351	0.54509	0.654722
0	H	0.888191	0.538173	0.868251
0	H	0.912811	0.469782	0.365954
0	H	0.110824	0.47687	0.152091
0	C	0.0572271	0.713615	0.575655
0	C	0.92695	0.711186	0.945243
0	C	0.941651	0.300683	0.444933
0	C	0.0720933	0.303859	0.075096
0	H	0.0236879	0.600461	0.554178
0	H	0.960328	0.593802	0.964514
0	H	0.975202	0.413691	0.466498
0	H	0.0387563	0.421293	0.0557787
0	C	0.0637359	0.889785	0.547174
0	C	0.92646	0.89233	0.9739
0	C	0.935109	0.124231	0.473286
0	C	0.0725466	0.122625	0.0464704
0	H	0.0361009	0.915101	0.503503
0	H	0.959331	0.919353	0.0152903
0	H	0.962759	0.098479	0.516931
0	H	0.0397148	0.0956479	0.00505644
0	C	0.106192	0.036338	0.575177
0	C	0.883679	0.0417195	0.948621
0	C	0.89261	0.977976	0.445211
0	C	0.115236	0.973032	0.0718141
0	C	0.143675	0.00287166	0.63018
0	C	0.840779	0.00971134	0.896117
0	C	0.855142	0.0118813	0.390222
0	C	0.158121	0.00501018	0.124334
0	H	0.177772	0.115971	0.650943
0	H	0.807185	0.12698	0.877443
0	H	0.821009	0.898983	0.369404
0	H	0.191645	0.88755	0.143048
0	C	0.272412	0.779246	0.695591
0	C	0.704045	0.784681	0.829489
0	C	0.72648	0.235938	0.324866
0	C	0.294871	0.229893	0.190889
0	C	0.2629	0.623068	0.65524
0	C	0.711282	0.623979	0.868211
0	C	0.735975	0.392006	0.365249
0	C	0.287882	0.391233	0.152395
0	H	0.228803	0.506274	0.651959
0	H	0.745084	0.506253	0.871516
0	H	0.7701	0.508773	0.368595
0	H	0.254321	0.509632	0.149328
0	C	0.29701	0.617669	0.618983
0	C	0.67486	0.614777	0.902295
0	C	0.701785	0.397383	0.401436
0	C	0.32419	0.400058	0.118201
0	H	0.289969	0.494307	0.588033
0	H	0.680078	0.488263	0.932051
0	H	0.708783	0.520736	0.432392
0	H	0.319123	0.526924	0.0885693
0	C	0.340443	0.768211	0.624029
0	C	0.631321	0.765603	0.896426
0	C	0.658336	0.246868	0.396324
0	C	0.367374	0.24818	0.123743
0	C	0.350207	0.925197	0.664599
0	C	0.623794	0.927018	0.85742
0	C	0.64863	0.0899075	0.35576
0	C	0.37464	0.0860712	0.162501
0	H	0.384119	0.0398014	0.66704
0	H	0.58981	0.0418243	0.854421
0	H	0.614717	0.975284	0.35328
0	H	0.408316	0.970377	0.165217
0	C	0.315958	0.93047	0.70048
0	C	0.660548	0.936682	0.823948
0	C	0.682915	0.0847331	0.31991
0	C	0.337987	0.0768136	0.19608
0	H	0.32238	0.0517574	0.731813
0	H	0.656133	0.0618546	0.794028
0	H	0.676509	0.963542	0.288557
0	H	0.342195	0.9511	0.2258
0	C	0.374044	0.623986	0.550077
0	C	0.59731	0.625703	0.970462
0	C	0.624665	0.390871	0.470262
0	C	0.401577	0.388913	0.0499228
0	H	0.41862	0.629009	0.545466
0	H	0.5513	0.610618	0.971286
0	H	0.579984	0.386704	0.474643
0	H	0.44764	0.403505	0.0492202
0	H	0.339226	0.664875	0.511028
0	H	0.62727	0.689754	0.00955135
0	H	0.659253	0.349001	0.50937
0	H	0.371568	0.326309	0.0106507
0	H	0.365619	0.47313	0.56477
0	H	0.613747	0.478076	0.961149
0	H	0.633463	0.54167	0.455791
0	H	0.385348	0.536441	0.059552
0	N	0.215496	0.71175	0.232548
0	N	0.806764	0.720613	0.282708
0	N	0.783347	0.302959	0.7879
0	N	0.192116	0.294853	0.737714
0	N	0.272263	0.716698	0.257946
0	N	0.749726	0.726922	0.259562
0	N	0.726581	0.297968	0.762508
0	N	0.249158	0.288583	0.760852
0	N	0.282997	0.739038	0.31506
0	N	0.736374	0.750367	0.20217
0	N	0.715849	0.275695	0.70539
0	N	0.262523	0.265183	0.818246
0	N	0.281479	0.154593	0.501519
0	N	0.713467	0.127659	0.00737702
0	N	0.717369	0.860213	0.518898
0	N	0.2852	0.886109	0.0127687
0	N	0.214963	0.759296	0.81113
0	N	0.762564	0.767646	0.714929
0	N	0.783996	0.256095	0.209371
0	N	0.236406	0.24712	0.305489
0	N	0.258415	0.7626	0.79007
0	N	0.71912	0.771641	0.735961
0	N	0.740517	0.252779	0.2304
0	N	0.279835	0.24306	0.284445
0	N	0.236185	0.783037	0.73244
0	N	0.741387	0.790368	0.793706
0	N	0.762724	0.232267	0.288032
0	N	0.257556	0.224395	0.226701
0	N	0.11049	0.230336	0.547454
0	N	0.886634	0.239703	0.976743
0	N	0.888182	0.783772	0.472789
0	N	0.112156	0.774928	0.0437455
0	O	0.0921647	0.726346	0.201794
0	O	0.927637	0.730733	0.310362
0	O	0.906729	0.288449	0.81861
0	O	0.0712747	0.28432	0.710043
0	O	0.0929726	0.734876	0.292235
0	O	0.926566	0.741141	0.219712
0	O	0.905815	0.280027	0.728116
0	O	0.0722761	0.274133	0.800654
0	O	0.274776	0.189558	0.547068
0	O	0.713877	0.152652	0.959209
0	O	0.723945	0.825478	0.473373
0	O	0.284833	0.860861	0.0609333
0	O	0.314603	0.255086	0.482599
0	O	0.680283	0.22274	0.0275203
0	O	0.684244	0.759474	0.537889
0	O	0.318197	0.790642	0.992484
0	O	0.50922	0.744133	0.474114
0	O	0.503372	0.720599	0.0555795
0	O	0.489669	0.270578	0.546267
0	O	0.49549	0.293412	0.964947
0	O	0.106227	0.770438	0.830745
0	O	0.87156	0.770434	0.695467
0	O	0.892667	0.244508	0.18974
0	O	0.127307	0.244351	0.324889
0	O	0.0542239	0.782451	0.738153
0	O	0.923265	0.790415	0.788019
0	O	0.944738	0.232913	0.282332
0	O	0.0757171	0.22454	0.232332
0	O	0.155249	0.333798	0.56579
0	O	0.841051	0.335412	0.971201
0	O	0.843398	0.680876	0.454496
0	O	0.157656	0.678301	0.0495222
0	O	0.0680033	0.280714	0.506887
0	O	0.936238	0.300337	0.00503379
0	O	0.930767	0.732762	0.513303
0	O	0.0625585	0.714993	0.0152875
0	O	0.377241	0.782674	0.591401
0	O	0.59189	0.775293	0.926403
0	O	0.621422	0.232499	0.428844
0	O	0.406614	0.237951	0.0935736
