#******************************************
#
# CIF file created by Zeo++
# Zeo++ is an open source package to
# analyze microporous materials
#
#*******************************************

_cell_length_a		14.8321(0)
_cell_length_b		14.8626(0)
_cell_length_c		10.912(0)
_cell_angle_alpha		90(0)
_cell_angle_beta		90(0)
_cell_angle_gamma		120.526(0)

_symmetry_space_group_name_H-M		'P1'
_symmetry_Int_Tables_number		1
_symmetry_cell_setting		Monoclinic

loop_
_symmetry_equiv_pos_as_xyz
'+x,+y,+z'

loop_
_atom_site_label
_atom_site_type_symbol
_atom_site_fract_x
_atom_site_fract_y
_atom_site_fract_z
0	C	0.654281	0.0164888	0.653047
0	C	0.00433144	0.642334	0.985749
0	C	0.376961	0.363235	0.323849
0	C	0.694604	0.952167	0.717716
0	C	0.0670069	0.745681	0.0557962
0	C	0.271475	0.321527	0.38895
0	H	0.62975	0.87947	0.754798
0	H	0.139262	0.753834	0.0935877
0	H	0.26331	0.385547	0.426008
0	H	0.746463	0.994358	0.794554
0	H	0.0238907	0.752045	0.133745
0	H	0.261422	0.270124	0.466022
0	H	0.737842	0.930019	0.654192
0	H	0.0897615	0.81342	0.995876
0	H	0.205486	0.277765	0.325684
0	C	0.634433	0.0826806	0.744927
0	C	0.936799	0.553625	0.0754253
0	C	0.46458	0.38383	0.414304
0	H	0.582793	0.0337063	0.818825
0	H	0.985441	0.547095	0.146595
0	H	0.471116	0.437817	0.486617
0	H	0.596228	0.121243	0.70139
0	H	0.893883	0.477243	0.0304027
0	H	0.541178	0.419367	0.368887
0	H	0.707018	0.143846	0.788
0	H	0.878787	0.566595	0.122797
0	H	0.451136	0.311855	0.45959
0	C	0.552838	0.943602	0.582864
0	C	0.0791492	0.617956	0.915028
0	C	0.404446	0.464782	0.255758
0	H	0.490757	0.890189	0.644945
0	H	0.131725	0.608441	0.97666
0	H	0.414279	0.525747	0.319795
0	H	0.565832	0.897243	0.514166
0	H	0.126523	0.680301	0.849037
0	H	0.342694	0.451206	0.189916
0	H	0.524775	0.988588	0.532412
0	H	0.0354476	0.546063	0.860956
0	H	0.477084	0.494732	0.202935
0	C	0.734926	0.0910499	0.557184
0	C	0.931428	0.648589	0.888169
0	C	0.370647	0.283888	0.226599
0	O	0.707077	0.0930422	0.450576
0	O	0.929514	0.619352	0.78126
0	O	0.399917	0.311957	0.11989
0	N	0.838245	0.160187	0.587647
0	N	0.862821	0.682152	0.919017
0	N	0.33638	0.180736	0.256307
0	C	0.913554	0.227987	0.491942
0	C	0.796132	0.690589	0.823434
0	C	0.328828	0.106341	0.160049
0	H	0.876334	0.265576	0.437291
0	H	0.757121	0.615498	0.768624
0	H	0.403773	0.14503	0.104405
0	C	0.942198	0.162379	0.40837
0	C	0.864117	0.785224	0.740033
0	C	0.232749	0.0757821	0.0776584
0	O	0.952789	0.090813	0.445293
0	O	0.937728	0.867408	0.776771
0	O	0.149167	0.0611983	0.116264
0	C	0.0117563	0.310837	0.561061
0	C	0.714316	0.706236	0.892731
0	C	0.31587	0.00948588	0.22847
0	H	0.0264344	0.390183	0.540047
0	H	0.634283	0.641481	0.871025
0	H	0.382288	0.997765	0.206612
0	H	0.0824792	0.309452	0.532366
0	H	0.717479	0.779185	0.864538
0	H	0.244135	0.937434	0.199879
0	C	0.990724	0.286268	0.698792
0	C	0.738156	0.708672	0.0305869
0	C	0.312466	0.0295221	0.366437
0	H	0.0570203	0.285832	0.744514
0	H	0.739671	0.775528	0.0770161
0	H	0.245849	0.961941	0.412196
0	H	0.980632	0.346361	0.745948
0	H	0.676912	0.637705	0.0771084
0	H	0.383811	0.0413121	0.413208
0	C	0.890506	0.178493	0.709243
0	C	0.845178	0.716066	0.0409047
0	C	0.303083	0.127716	0.377772
0	H	0.909435	0.116308	0.727982
0	H	0.908413	0.797674	0.0600228
0	H	0.220892	0.106355	0.396845
0	H	0.838164	0.1768	0.783698
0	H	0.845884	0.664691	0.115021
0	H	0.35383	0.180458	0.452387
0	N	0.959248	0.188742	0.283134
0	N	0.837933	0.776131	0.614843
0	N	0.242492	0.0631384	0.951249
0	C	0.952291	0.274419	0.222794
0	C	0.74988	0.683772	0.554604
0	C	0.335049	0.0691513	0.890955
0	H	0.945648	0.32663	0.293478
0	H	0.69638	0.624723	0.625077
0	H	0.394412	0.0759387	0.961468
0	C	0.8529	0.229586	0.141413
0	C	0.79215	0.627805	0.473092
0	C	0.390889	0.167674	0.80889
0	O	0.855429	0.246237	0.030918
0	O	0.774559	0.613425	0.362742
0	O	0.405661	0.163954	0.698732
0	C	0.0501896	0.336939	0.144131
0	C	0.68966	0.72117	0.476477
0	C	0.297296	0.970814	0.813094
0	H	0.11236	0.404675	0.193976
0	H	0.622148	0.715542	0.525937
0	H	0.302441	0.909099	0.863042
0	H	0.0328053	0.365507	0.0583759
0	H	0.660632	0.675756	0.390245
0	H	0.342773	0.987454	0.726721
0	C	0.000556935	0.137705	0.202001
0	C	0.890983	0.869605	0.534471
0	C	0.149714	0.0225231	0.869529
0	H	0.0435487	0.107235	0.256821
0	H	0.923553	0.94312	0.590436
0	H	0.0751262	0.981156	0.924065
0	C	0.917978	0.0532973	0.121672
0	C	0.973704	0.871233	0.452313
0	C	0.150519	0.104261	0.786378
0	H	0.95264	0.0161042	0.0667603
0	H	0.0120269	0.943608	0.397542
0	H	0.077852	0.0701392	0.732016
0	H	0.881392	0.0820709	0.0575509
0	H	0.942688	0.805835	0.387284
0	H	0.215678	0.137559	0.720705
0	H	0.855289	0.991876	0.177847
0	H	0.0351447	0.869018	0.506696
0	H	0.15486	0.169148	0.839878
0	N	0.758927	0.174695	0.203629
0	N	0.846275	0.58843	0.534635
0	N	0.430048	0.262539	0.868636
0	H	0.75457	0.154732	0.296157
0	H	0.867259	0.604316	0.626932
0	H	0.415148	0.268746	0.960835
0	C	0.658908	0.127712	0.135659
0	C	0.892676	0.536495	0.465225
0	C	0.482379	0.360097	0.796217
0	H	0.672025	0.107212	0.0396152
0	H	0.912427	0.570668	0.36927
0	H	0.446808	0.343044	0.700896
0	C	0.620588	0.205866	0.114649
0	C	0.814225	0.418863	0.444528
0	C	0.599744	0.398936	0.774286
0	O	0.547696	0.182039	0.0415562
0	O	0.839677	0.370218	0.373481
0	O	0.648871	0.471221	0.700223
0	C	0.575314	0.0293485	0.20178
0	C	0.99161	0.551767	0.529219
0	C	0.469209	0.445745	0.856902
0	H	0.570425	0.0474698	0.299761
0	H	0.97376	0.526398	0.626658
0	H	0.495104	0.455312	0.954169
0	H	0.497284	0.00416268	0.161268
0	H	0.0162032	0.5	0.485775
0	H	0.521842	0.521547	0.811099
0	S	0.0962665	0.247486	0.105138
0	S	0.781855	0.858027	0.439497
0	S	0.160187	0.924205	0.77554
0	C	0.599835	0.939934	0.197494
0	C	0.0818901	0.666804	0.526861
0	C	0.354713	0.421406	0.854208
0	H	0.669405	0.962801	0.258145
0	H	0.0593576	0.712296	0.589179
0	H	0.307407	0.352068	0.914999
0	C	0.507015	0.83973	0.249454
0	C	0.181843	0.673708	0.577146
0	C	0.35005	0.514907	0.906151
0	H	0.525873	0.777424	0.254264
0	H	0.245158	0.755208	0.583965
0	H	0.268895	0.496708	0.914191
0	H	0.436873	0.811598	0.192821
0	H	0.209282	0.632935	0.518121
0	H	0.391344	0.583798	0.847363
0	H	0.487759	0.852029	0.342615
0	H	0.16911	0.639728	0.669045
0	H	0.384799	0.535902	0.997939
0	C	0.6265	0.920577	0.0679811
0	C	0.101815	0.715218	0.398476
0	C	0.306715	0.394819	0.725424
0	H	0.646174	0.858789	0.0685692
0	H	0.165691	0.796831	0.400201
0	H	0.225927	0.378775	0.726938
0	H	0.69474	0.99073	0.0306414
0	H	0.032517	0.715031	0.362788
0	H	0.304153	0.324796	0.688797
0	H	0.561462	0.897412	0.00411553
0	H	0.122718	0.673184	0.332797
0	H	0.350823	0.458787	0.660811
0	N	0.670547	0.300452	0.172873
0	N	0.718364	0.373037	0.500067
0	N	0.644664	0.350151	0.832973
0	H	0.729913	0.318688	0.235462
0	H	0.699395	0.413807	0.561593
0	H	0.603897	0.2922	0.897218
0	C	0.642671	0.381249	0.15013
0	C	0.637162	0.263182	0.477503
0	C	0.7534	0.376816	0.80864
0	H	0.660441	0.431675	0.231656
0	H	0.585726	0.230361	0.558367
0	H	0.786234	0.358325	0.889394
0	H	0.558067	0.345573	0.128191
0	H	0.672341	0.214238	0.457366
0	H	0.804411	0.461257	0.786811
0	H	0.687258	0.431336	0.0719107
0	H	0.587781	0.256875	0.398403
0	H	0.756723	0.331926	0.729742
