#******************************************
#
# CIF file created by Zeo++
# Zeo++ is an open source package to
# analyze microporous materials
#
#*******************************************

_cell_length_a		7.96335(0)
_cell_length_b		17.0704(0)
_cell_length_c		26.1252(0)
_cell_angle_alpha		90(0)
_cell_angle_beta		90(0)
_cell_angle_gamma		90(0)

_symmetry_space_group_name_H-M		'P1'
_symmetry_Int_Tables_number		1
_symmetry_cell_setting		Monoclinic

loop_
_symmetry_equiv_pos_as_xyz
'+x,+y,+z'

loop_
_atom_site_label
_atom_site_type_symbol
_atom_site_fract_x
_atom_site_fract_y
_atom_site_fract_z
0	Se	0.49112	0.93087	0.168936
0	Se	0.0153195	0.0803339	0.670522
0	Se	0.513343	0.427538	0.343134
0	Se	0.990477	0.576547	0.844816
0	O	0.912129	0.755682	0.11395
0	O	0.591672	0.253259	0.617088
0	O	0.0909397	0.253593	0.396005
0	O	0.412422	0.752002	0.899418
0	O	0.318315	0.521247	0.23976
0	O	0.187462	0.487719	0.742401
0	O	0.684921	0.0200248	0.270674
0	O	0.815858	0.986832	0.773448
0	O	0.191092	0.0528717	0.333275
0	O	0.315017	0.954951	0.836693
0	O	0.812197	0.552844	0.176423
0	O	0.692071	0.454631	0.679566
0	O	0.236652	0.986528	0.149133
0	O	0.273104	0.0290511	0.649446
0	O	0.773078	0.477546	0.364387
0	O	0.732691	0.521974	0.864933
0	O	0.0555632	0.985439	0.0869925
0	O	0.444842	0.0285019	0.584903
0	O	0.947843	0.474063	0.428123
0	O	0.550293	0.52655	0.926635
0	N	0.88602	0.77015	0.201294
0	N	0.617734	0.238104	0.704414
0	N	0.115327	0.270224	0.308744
0	N	0.386581	0.736499	0.812129
0	N	0.187716	0.964905	0.106282
0	N	0.314672	0.048771	0.605478
0	N	0.815532	0.456014	0.407889
0	N	0.683986	0.545116	0.907422
0	C	0.711907	0.887273	0.186477
0	C	0.793263	0.121519	0.68902
0	C	0.291259	0.386695	0.324313
0	C	0.211674	0.619752	0.827307
0	H	0.803178	0.898825	0.155431
0	H	0.701304	0.110039	0.658152
0	H	0.199165	0.398148	0.355128
0	H	0.302826	0.608307	0.858442
0	H	0.755583	0.923942	0.219365
0	H	0.751371	0.08399	0.721716
0	H	0.249999	0.424412	0.291676
0	H	0.255468	0.582806	0.794528
0	C	0.708931	0.80042	0.200466
0	C	0.795007	0.208132	0.703697
0	C	0.292758	0.30014	0.309438
0	C	0.209256	0.706542	0.813069
0	H	0.644717	0.766289	0.168819
0	H	0.859721	0.243087	0.67253
0	H	0.357473	0.265043	0.340528
0	H	0.145302	0.740938	0.84466
0	C	0.623902	0.779397	0.250661
0	C	0.878756	0.228046	0.754307
0	C	0.376381	0.280452	0.258764
0	C	0.124534	0.727447	0.7628
0	C	0.585116	0.699993	0.259074
0	C	0.917541	0.307224	0.763639
0	C	0.415124	0.201323	0.249275
0	C	0.0848551	0.806765	0.754364
0	H	0.618411	0.656036	0.230397
0	H	0.885204	0.351915	0.735352
0	H	0.383491	0.156592	0.277604
0	H	0.116952	0.85077	0.783133
0	C	0.50583	0.676764	0.304189
0	C	0.995443	0.329335	0.809222
0	C	0.491999	0.179328	0.203504
0	C	0.00640216	0.829885	0.709088
0	H	0.476523	0.615029	0.310375
0	H	0.024504	0.390882	0.816173
0	H	0.520784	0.117772	0.196418
0	H	0.976558	0.891569	0.702873
0	C	0.463199	0.732555	0.341258
0	C	0.0365626	0.272669	0.845877
0	C	0.532165	0.236047	0.166789
0	C	0.965449	0.77408	0.671862
0	H	0.400276	0.714412	0.376286
0	H	0.0983415	0.289988	0.881294
0	H	0.592625	0.218804	0.131175
0	H	0.903127	0.792142	0.636689
0	C	0.502105	0.811332	0.333106
0	C	0.997578	0.194142	0.83685
0	C	0.493845	0.314583	0.176081
0	C	0.00526772	0.695415	0.680009
0	H	0.46797	0.854994	0.361643
0	H	0.0304277	0.14982	0.865089
0	H	0.526237	0.358996	0.147846
0	H	0.972589	0.65175	0.651315
0	C	0.583959	0.834739	0.288215
0	C	0.91727	0.171831	0.791464
0	C	0.414669	0.336798	0.22168
0	C	0.0863001	0.67212	0.725071
0	H	0.616397	0.896689	0.283102
0	H	0.884753	0.110023	0.785636
0	H	0.382886	0.398636	0.227703
0	H	0.119521	0.610261	0.7302
0	C	0.973061	0.751464	0.156964
0	C	0.530721	0.256958	0.66012
0	C	0.0292775	0.250468	0.353043
0	C	0.473304	0.75591	0.85638
0	C	0.152924	0.727531	0.171168
0	C	0.350677	0.280452	0.674367
0	C	0.849117	0.22691	0.339003
0	C	0.652782	0.780244	0.842067
0	H	0.235174	0.779998	0.163555
0	H	0.268954	0.227797	0.666796
0	H	0.767234	0.279409	0.346864
0	H	0.7359	0.728119	0.849752
0	C	0.221046	0.66101	0.139741
0	C	0.282137	0.346766	0.642863
0	C	0.78128	0.160338	0.370416
0	C	0.719654	0.847031	0.873492
0	C	0.238818	0.671039	0.0866502
0	C	0.264507	0.33649	0.589785
0	C	0.764718	0.170214	0.423558
0	C	0.735875	0.837291	0.926641
0	H	0.194541	0.725237	0.0688152
0	H	0.309018	0.282261	0.572107
0	H	0.809445	0.224321	0.441361
0	H	0.691238	0.783145	0.944473
0	C	0.309649	0.612093	0.0565724
0	C	0.193456	0.395262	0.559629
0	C	0.694344	0.111171	0.453648
0	C	0.805507	0.896526	0.956729
0	H	0.320857	0.620187	0.0152218
0	H	0.182098	0.387128	0.518282
0	H	0.683873	0.119005	0.495036
0	H	0.815609	0.888719	0.998127
0	C	0.365785	0.54245	0.0791078
0	C	0.136799	0.464885	0.582084
0	C	0.637178	0.0417279	0.431081
0	C	0.862075	0.966075	0.934146
0	H	0.421415	0.496664	0.0555457
0	H	0.0808407	0.510458	0.558419
0	H	0.581716	0.995985	0.454681
0	H	0.917026	0.0119751	0.95774
0	C	0.347783	0.531798	0.13174
0	C	0.154686	0.475742	0.634703
0	C	0.65386	0.0312697	0.37839
0	C	0.845369	0.976451	0.881447
0	H	0.390353	0.477731	0.150166
0	H	0.111563	0.529779	0.653046
0	H	0.610245	0.977395	0.359941
0	H	0.888208	0.0304499	0.862981
0	C	0.274038	0.590368	0.162098
0	C	0.229001	0.417414	0.665149
0	C	0.727646	0.0898382	0.348024
0	C	0.772518	0.917643	0.851083
0	C	0.249953	0.575285	0.217738
0	C	0.25392	0.43285	0.720702
0	C	0.751657	0.0748108	0.292384
0	C	0.748476	0.93248	0.795413
0	C	0.127877	0.628528	0.244783
0	C	0.374614	0.379353	0.748121
0	C	0.872179	0.128483	0.265016
0	C	0.627222	0.878867	0.768305
0	H	0.139645	0.621142	0.286901
0	H	0.360911	0.386585	0.790203
0	H	0.858269	0.121453	0.222928
0	H	0.639423	0.886168	0.726199
0	H	0.998304	0.607472	0.23508
0	H	0.504552	0.400504	0.739069
0	H	0.00210631	0.107298	0.27401
0	H	0.497403	0.899718	0.777836
0	C	0.147062	0.714584	0.230016
0	C	0.35634	0.293328	0.73322
0	C	0.854025	0.214457	0.280109
0	C	0.646681	0.792881	0.783195
0	H	0.263718	0.738798	0.247828
0	H	0.239815	0.268864	0.750992
0	H	0.737271	0.238993	0.262544
0	H	0.763354	0.76868	0.7654
0	C	0.989635	0.761845	0.248824
0	C	0.51407	0.246202	0.751922
0	C	0.0115114	0.261732	0.261266
0	C	0.489493	0.745301	0.764468
0	H	0.915393	0.72688	0.277376
0	H	0.588152	0.281201	0.780528
0	H	0.0857153	0.226732	0.232702
0	H	0.414571	0.780235	0.736069
0	C	0.0391868	0.839341	0.27225
0	C	0.464998	0.168595	0.775315
0	C	0.961978	0.339138	0.237715
0	C	0.539652	0.668015	0.740817
0	C	0.0320559	0.848877	0.325415
0	C	0.472381	0.159154	0.828486
0	C	0.969691	0.348549	0.184539
0	C	0.532814	0.658644	0.687624
0	H	0.986351	0.801327	0.349615
0	H	0.517602	0.206853	0.852647
0	H	0.0153165	0.300873	0.160417
0	H	0.487409	0.706306	0.663469
0	C	0.0823957	0.919121	0.348442
0	C	0.422914	0.0888527	0.851579
0	C	0.920059	0.418805	0.161385
0	C	0.58321	0.588474	0.664477
0	H	0.0755103	0.925558	0.389681
0	H	0.430279	0.0824933	0.892816
0	H	0.92747	0.425145	0.120149
0	H	0.576289	0.582169	0.623227
0	C	0.139919	0.979821	0.317055
0	C	0.365504	0.0280365	0.820269
0	C	0.862498	0.479629	0.192668
0	C	0.640844	0.527666	0.695759
0	C	0.14726	0.971858	0.263342
0	C	0.357516	0.0359549	0.766571
0	C	0.854041	0.471706	0.246368
0	C	0.648246	0.535554	0.749487
0	H	0.193619	0.0199313	0.239726
0	H	0.311031	0.987879	0.743003
0	H	0.807325	0.519779	0.269847
0	H	0.694756	0.487468	0.77303
0	C	0.0961247	0.901702	0.24157
0	C	0.408522	0.106094	0.744701
0	C	0.904883	0.401583	0.268275
0	C	0.59669	0.605546	0.771361
0	H	0.0990448	0.895316	0.200044
0	H	0.405752	0.112277	0.703134
0	H	0.901836	0.395366	0.309841
0	H	0.599331	0.611757	0.812902
0	C	0.189356	0.069383	0.387679
0	C	0.319762	0.938684	0.89112
0	C	0.817149	0.569734	0.1221
0	C	0.69008	0.437861	0.625203
0	H	0.0616044	0.0645937	0.402878
0	H	0.448033	0.944468	0.905787
0	H	0.945379	0.564169	0.107382
0	H	0.562356	0.442703	0.609991
0	H	0.231987	0.130755	0.388569
0	H	0.279181	0.877027	0.892361
0	H	0.776553	0.631384	0.121165
0	H	0.732356	0.376433	0.624406
0	H	0.277734	0.0310719	0.407607
0	H	0.231118	0.976544	0.91131
0	H	0.728521	0.532153	0.101706
0	H	0.778626	0.475999	0.605228
0	C	0.451074	0.887714	0.103193
0	C	0.0464274	0.122276	0.603968
0	C	0.544632	0.384515	0.409381
0	C	0.950417	0.620341	0.91039
0	C	0.299059	0.910514	0.0796823
0	C	0.196891	0.100478	0.579194
0	C	0.696233	0.404889	0.434018
0	C	0.797371	0.598886	0.933799
0	C	0.252723	0.882209	0.0309155
0	C	0.236012	0.127448	0.529521
0	C	0.735144	0.377029	0.483485
0	C	0.751549	0.627999	0.982405
0	H	0.134224	0.901413	0.0137746
0	H	0.353132	0.108621	0.511373
0	H	0.853179	0.394737	0.501555
0	H	0.632261	0.609765	0.999491
0	C	0.359061	0.830602	0.00597147
0	C	0.124704	0.177235	0.505028
0	C	0.622487	0.32786	0.507926
0	C	0.85928	0.678996	0.00733274
0	H	0.329005	0.808022	0.967712
0	H	0.149524	0.198777	0.466139
0	H	0.647271	0.305764	0.546677
0	H	0.829311	0.702046	0.0454798
0	C	0.510058	0.80719	0.0293898
0	C	0.975775	0.200108	0.529855
0	C	0.472423	0.306332	0.483224
0	C	0.0114946	0.701004	0.984043
0	H	0.592065	0.766299	0.00889674
0	H	0.889728	0.239841	0.509968
0	H	0.385508	0.26698	0.503059
0	H	0.0950144	0.74129	0.00445791
0	C	0.556773	0.835527	0.0772833
0	C	0.935708	0.172703	0.578527
0	C	0.432703	0.334557	0.434724
0	C	0.0575597	0.671909	0.936272
0	H	0.677297	0.816463	0.0938555
0	H	0.816277	0.191259	0.596094
0	H	0.312465	0.317005	0.417229
0	H	0.178897	0.689955	0.919789
