#******************************************
#
# CIF file created by Zeo++
# Zeo++ is an open source package to
# analyze microporous materials
#
#*******************************************

_cell_length_a		31.2707(0)
_cell_length_b		31.7659(0)
_cell_length_c		8.2685(0)
_cell_angle_alpha		90(0)
_cell_angle_beta		90(0)
_cell_angle_gamma		121.089(0)

_symmetry_space_group_name_H-M		'P1'
_symmetry_Int_Tables_number		1
_symmetry_cell_setting		Monoclinic

loop_
_symmetry_equiv_pos_as_xyz
'+x,+y,+z'

loop_
_atom_site_label
_atom_site_type_symbol
_atom_site_fract_x
_atom_site_fract_y
_atom_site_fract_z
0	S	0.84026	0.025538	0.998257
0	S	0.0248301	0.814676	0.00595512
0	S	0.234092	0.213652	0.977115
0	S	0.226171	0.0134782	0.930743
0	S	0.0419162	0.223926	0.92297
0	S	0.832609	0.825303	0.952804
0	S	0.505651	0.359736	0.327472
0	S	0.691708	0.146504	0.322394
0	S	0.900774	0.541727	0.318399
0	S	0.893032	0.340312	0.267073
0	S	0.70922	0.554342	0.268696
0	S	0.499136	0.160786	0.265125
0	S	0.173694	0.698147	0.662221
0	S	0.357582	0.484612	0.660532
0	S	0.567286	0.877707	0.664173
0	S	0.561253	0.679115	0.602233
0	S	0.374675	0.892096	0.607185
0	S	0.165792	0.49659	0.611053
0	O	0.909584	0.116482	0.00281372
0	O	0.933944	0.793063	0.0174741
0	O	0.252951	0.143925	0.989387
0	O	0.156842	0.922328	0.925666
0	O	0.132882	0.245764	0.911798
0	O	0.813653	0.895009	0.94069
0	O	0.576287	0.448522	0.333144
0	O	0.602528	0.129433	0.326953
0	O	0.919804	0.472296	0.323552
0	O	0.825359	0.250428	0.259613
0	O	0.798422	0.573407	0.260456
0	O	0.478091	0.228306	0.262962
0	O	0.241307	0.787971	0.669358
0	O	0.268382	0.465531	0.668615
0	O	0.588415	0.810273	0.666344
0	O	0.490635	0.590393	0.596321
0	O	0.463909	0.909326	0.602592
0	O	0.146841	0.56603	0.606151
0	O	0.806449	0.977977	0.911108
0	O	0.0717452	0.829385	0.911915
0	O	0.222284	0.247786	0.888183
0	O	0.26011	0.0609881	0.017985
0	O	0.994957	0.209193	0.0167972
0	O	0.844487	0.791166	0.0413936
0	O	0.473158	0.312827	0.235428
0	O	0.738373	0.159955	0.228816
0	O	0.887172	0.574301	0.2278
0	O	0.925259	0.387893	0.355889
0	O	0.662335	0.53946	0.363099
0	O	0.51363	0.128707	0.354517
0	O	0.141634	0.650572	0.573175
0	O	0.404446	0.499574	0.565922
0	O	0.552576	0.909574	0.574514
0	O	0.593837	0.72604	0.694108
0	O	0.327975	0.878571	0.700697
0	O	0.179314	0.463925	0.701463
0	O	0.799218	0.0825079	0.991704
0	O	0.96312	0.715726	0.00145937
0	O	0.333921	0.251138	0.976376
0	O	0.267262	0.956553	0.936611
0	O	0.103462	0.322913	0.927278
0	O	0.732756	0.787672	0.954081
0	O	0.466652	0.418548	0.317402
0	O	0.626749	0.0481616	0.314349
0	O	0.000794879	0.580805	0.30715
0	O	0.935535	0.284533	0.269688
0	O	0.771329	0.653105	0.281797
0	O	0.398748	0.119578	0.270777
0	O	0.131097	0.753843	0.659193
0	O	0.29544	0.385862	0.647074
0	O	0.66769	0.919004	0.65796
0	O	0.600233	0.620287	0.612063
0	O	0.439446	0.990473	0.614904
0	O	0.0657665	0.457487	0.622079
0	C	0.808394	0.0287344	0.168018
0	C	0.0219307	0.77929	0.172893
0	C	0.269805	0.244027	0.148594
0	C	0.257904	0.0102606	0.760599
0	C	0.0447871	0.259241	0.755842
0	C	0.796841	0.794931	0.781405
0	C	0.472364	0.362636	0.49335
0	C	0.686972	0.109924	0.487829
0	C	0.937939	0.573963	0.484978
0	C	0.925331	0.338347	0.0967668
0	C	0.712935	0.591139	0.104966
0	C	0.463237	0.128842	0.095825
0	C	0.141228	0.700007	0.832233
0	C	0.353884	0.447748	0.824025
0	C	0.603279	0.909833	0.833109
0	C	0.594424	0.676151	0.436131
0	C	0.379269	0.92859	0.441664
0	C	0.12868	0.464439	0.444266
0	C	0.829899	0.0711634	0.89036
0	C	0.976171	0.758036	0.900193
0	C	0.290987	0.221991	0.873035
0	C	0.236529	0.967779	0.0381506
0	C	0.090481	0.280649	0.0286899
0	C	0.775735	0.816939	0.0571254
0	C	0.496996	0.406329	0.218045
0	C	0.642014	0.0911402	0.213933
0	C	0.95698	0.550509	0.208424
0	C	0.904629	0.295061	0.372845
0	C	0.757969	0.60994	0.378815
0	C	0.4417	0.14978	0.373071
0	C	0.162041	0.743329	0.556193
0	C	0.308862	0.429056	0.550144
0	C	0.624694	0.888744	0.55591
0	C	0.569901	0.632496	0.711513
0	C	0.424318	0.947541	0.715436
0	C	0.109557	0.487771	0.720922
0	C	0.791658	0.0616022	0.142871
0	C	0.98665	0.729238	0.149442
0	C	0.320165	0.258669	0.126935
0	C	0.274666	0.977407	0.785396
0	C	0.0800051	0.30932	0.779202
0	C	0.746469	0.780213	0.803345
0	C	0.457487	0.396944	0.46778
0	C	0.649924	0.0604804	0.463081
0	C	0.988343	0.589644	0.457885
0	C	0.94231	0.305559	0.118928
0	C	0.748436	0.640898	0.13268
0	C	0.412533	0.112466	0.119765
0	C	0.124237	0.732781	0.809912
0	C	0.318338	0.398016	0.796201
0	C	0.653971	0.926208	0.808946
0	C	0.609291	0.641829	0.461588
0	C	0.416247	0.978072	0.466234
0	C	0.0782565	0.448718	0.471299
0	C	0.9059	0.113521	0.711126
0	C	0.937769	0.794021	0.725348
0	C	0.252734	0.146636	0.69737
0	C	0.160534	0.925226	0.217367
0	C	0.128982	0.244854	0.203905
0	C	0.813741	0.892316	0.232695
0	C	0.573286	0.447644	0.0408503
0	C	0.605417	0.128568	0.0346535
0	C	0.919968	0.475344	0.0311688
0	C	0.828868	0.251866	0.551844
0	C	0.798223	0.575197	0.552981
0	C	0.47572	0.223961	0.554966
0	C	0.237773	0.786575	0.377137
0	C	0.268744	0.46397	0.376063
0	C	0.590579	0.814526	0.374263
0	C	0.493579	0.591184	0.888632
0	C	0.461268	0.910473	0.894897
0	C	0.146417	0.562873	0.898505
0	C	0.881809	0.117648	0.865935
0	C	0.930754	0.764343	0.878429
0	C	0.282741	0.17004	0.850878
0	C	0.184673	0.921221	0.0624804
0	C	0.135982	0.274487	0.0507127
0	C	0.783836	0.868843	0.0790946
0	C	0.54974	0.452002	0.19663
0	C	0.598073	0.0995869	0.189752
0	C	0.949494	0.498882	0.18544
0	C	0.852779	0.248234	0.395833
0	C	0.803321	0.603391	0.397818
0	C	0.44758	0.200672	0.398409
0	C	0.213877	0.790185	0.533221
0	C	0.263541	0.435645	0.53102
0	C	0.618827	0.837854	0.530652
0	C	0.517142	0.586851	0.732853
0	C	0.468378	0.939269	0.739528
0	C	0.117022	0.539385	0.74398
0	C	0.799073	0.00407393	0.314838
0	C	0.048534	0.794939	0.317326
0	C	0.254156	0.253188	0.295023
0	C	0.26705	0.0348523	0.613702
0	C	0.0182107	0.243525	0.6114
0	C	0.812452	0.78584	0.63477
0	C	0.461409	0.337371	0.639505
0	C	0.713371	0.124149	0.632802
0	C	0.923389	0.583631	0.632691
0	C	0.933763	0.363017	0.950309
0	C	0.687019	0.576873	0.959112
0	C	0.478875	0.119842	0.949044
0	C	0.132674	0.675271	0.978611
0	C	0.379825	0.461943	0.969857
0	C	0.587704	0.91893	0.979844
0	C	0.605259	0.701347	0.289872
0	C	0.352811	0.914279	0.296832
0	C	0.143257	0.454845	0.296491
0	C	0.948487	0.109619	0.719727
0	C	0.947412	0.842166	0.736586
0	C	0.203768	0.106442	0.707002
0	C	0.117889	0.929037	0.20882
0	C	0.118914	0.196559	0.192725
0	C	0.862578	0.932742	0.223223
0	C	0.614215	0.441092	0.0473245
0	C	0.614379	0.17649	0.0412567
0	C	0.872134	0.433397	0.0389887
0	C	0.786852	0.256696	0.545161
0	C	0.790056	0.527571	0.546036
0	C	0.523727	0.265764	0.549336
0	C	0.279722	0.781633	0.38367
0	C	0.276477	0.511433	0.38331
0	C	0.542594	0.772708	0.380155
0	C	0.45256	0.597595	0.882067
0	C	0.452169	0.862499	0.888669
0	C	0.194251	0.604823	0.891053
0	C	0.757711	0.0468934	0.408695
0	C	0.00319441	0.709993	0.41147
0	C	0.339449	0.289915	0.395217
0	C	0.308381	0.992052	0.519232
0	C	0.0634763	0.328423	0.516886
0	C	0.727105	0.749015	0.535006
0	C	0.422846	0.383003	0.732129
0	C	0.663798	0.039337	0.725769
0	C	0.00991408	0.623361	0.722933
0	C	0.974487	0.320181	0.850921
0	C	0.73356	0.662484	0.872066
0	C	0.392946	0.0799782	0.852939
0	C	0.0918959	0.718094	0.0776881
0	C	0.333143	0.376306	0.0566774
0	C	0.673677	0.958818	0.0756107
0	C	0.643766	0.655688	0.196993
0	C	0.402182	0.999062	0.203542
0	C	0.0567424	0.415059	0.206189
0	C	0.766681	0.0719996	0.262296
0	C	0.976136	0.693608	0.267573
0	C	0.355949	0.281303	0.24902
0	C	0.299526	0.966965	0.665665
0	C	0.0905016	0.344876	0.660828
0	C	0.710648	0.75757	0.681391
0	C	0.43316	0.408494	0.586101
0	C	0.637101	0.0242418	0.580893
0	C	0.0252858	0.614274	0.575342
0	C	0.96651	0.295159	0.996979
0	C	0.759855	0.677509	0.0175954
0	C	0.376461	0.0884584	0.999333
0	C	0.0999485	0.743144	0.931655
0	C	0.306846	0.361352	0.911156
0	C	0.690096	0.950281	0.929194
0	C	0.633517	0.630224	0.343057
0	C	0.428959	0.0142397	0.348257
0	C	0.0413432	0.424109	0.353764
0	C	0.886679	0.114754	0.55916
0	C	0.934775	0.773654	0.572337
0	C	0.274109	0.16461	0.544995
0	C	0.179754	0.923972	0.369312
0	C	0.132329	0.26537	0.356889
0	C	0.792398	0.874178	0.384977
0	C	0.554728	0.450806	0.889708
0	C	0.60216	0.10704	0.883515
0	C	0.941042	0.49479	0.879498
0	C	0.848041	0.249801	0.703099
0	C	0.802153	0.596893	0.704391
0	C	0.45369	0.204684	0.705767
0	C	0.218613	0.788734	0.225973
0	C	0.265271	0.442519	0.224509
0	C	0.612493	0.833813	0.223334
0	C	0.512164	0.588094	0.0398139
0	C	0.464846	0.932207	0.0458949
0	C	0.125208	0.543374	0.0499886
0	C	0.773192	0.013023	0.434676
0	C	0.0391869	0.75988	0.436234
0	C	0.289406	0.276469	0.418168
0	C	0.292826	0.0258806	0.493507
0	C	0.0275214	0.278515	0.492274
0	C	0.777163	0.762551	0.511745
0	C	0.436132	0.347476	0.758395
0	C	0.70182	0.0884644	0.75145
0	C	0.95975	0.608606	0.75154
0	C	0.958835	0.354032	0.827711
0	C	0.697335	0.612936	0.843053
0	C	0.443311	0.0949162	0.828043
0	C	0.107499	0.684208	0.100994
0	C	0.369451	0.425828	0.0857851
0	C	0.623327	0.94392	0.100655
0	C	0.630447	0.691195	0.170801
0	C	0.364214	0.949907	0.178101
0	C	0.106928	0.429875	0.177583
0	C	0.910368	0.11325	0.41817
0	C	0.941133	0.800909	0.432664
0	C	0.247407	0.142053	0.404366
0	C	0.156026	0.925405	0.510308
0	C	0.125896	0.238104	0.496598
0	C	0.818986	0.896829	0.525708
0	C	0.577392	0.44844	0.747724
0	C	0.606397	0.132478	0.74141
0	C	0.915327	0.471832	0.73808
0	C	0.824831	0.251369	0.844974
0	C	0.799165	0.571808	0.846082
0	C	0.478716	0.227679	0.848174
0	C	0.241765	0.787141	0.0839931
0	C	0.268281	0.467665	0.0829409
0	C	0.587369	0.810826	0.0810553
0	C	0.489426	0.590388	0.181722
0	C	0.460787	0.906909	0.188156
0	C	0.150787	0.566334	0.191602
0	C	0.880067	0.164692	0.871106
0	C	0.881146	0.715756	0.88052
0	C	0.331332	0.169776	0.853517
0	C	0.186555	0.874252	0.0570506
0	C	0.185521	0.323145	0.0486333
0	C	0.735169	0.868963	0.0760975
0	C	0.550203	0.500163	0.20471
0	C	0.547382	0.0520607	0.192525
0	C	0.998511	0.499412	0.187214
0	C	0.854289	0.201094	0.387622
0	C	0.853053	0.651866	0.389029
0	C	0.397879	0.19873	0.391295
0	C	0.212347	0.837312	0.541637
0	C	0.213774	0.387194	0.539233
0	C	0.668525	0.839781	0.537393
0	C	0.51662	0.538661	0.724688
0	C	0.518977	0.986901	0.736095
0	C	0.0680006	0.538846	0.741761
0	C	0.953766	0.11056	0.426738
0	C	0.950745	0.84915	0.444065
0	C	0.198709	0.10108	0.414013
0	C	0.112572	0.928	0.501794
0	C	0.115842	0.189709	0.485255
0	C	0.867522	0.938072	0.516236
0	C	0.619141	0.442845	0.754242
0	C	0.614456	0.180285	0.747905
0	C	0.867733	0.429072	0.745797
0	C	0.781956	0.255073	0.838168
0	C	0.79212	0.524376	0.83904
0	C	0.526437	0.27037	0.842424
0	C	0.28457	0.783313	0.0906375
0	C	0.27488	0.514914	0.0902623
0	C	0.53966	0.768139	0.0870684
0	C	0.447573	0.595813	0.175117
0	C	0.452589	0.85904	0.182035
0	C	0.198362	0.609138	0.184264
0	C	0.980078	0.110519	0.276371
0	C	0.958505	0.878857	0.295356
0	C	0.170389	0.0759604	0.264157
0	C	0.0862014	0.927954	0.652136
0	C	0.108012	0.159996	0.634008
0	C	0.895651	0.96336	0.666169
0	C	0.643931	0.441855	0.601453
0	C	0.617305	0.206577	0.595145
0	C	0.841188	0.403851	0.59379
0	C	0.756307	0.254773	0.990475
0	C	0.790926	0.498889	0.991773
0	C	0.552063	0.295516	0.995525
0	C	0.310149	0.78356	0.938217
0	C	0.276067	0.540472	0.937684
0	C	0.513882	0.742983	0.934143
0	C	0.422694	0.59668	0.327859
0	C	0.449935	0.832948	0.335042
0	C	0.224622	0.634348	0.336631
0	C	0.972582	0.108643	0.579022
0	C	0.953633	0.869547	0.597291
0	C	0.176985	0.0835764	0.566641
0	C	0.0937465	0.92991	0.349532
0	C	0.112596	0.169162	0.332044
0	C	0.889234	0.95571	0.363675
0	C	0.637293	0.439066	0.905388
0	C	0.618685	0.202169	0.899138
0	C	0.846228	0.4102	0.897557
0	C	0.763279	0.257965	0.686888
0	C	0.787325	0.502346	0.687787
0	C	0.548869	0.28907	0.691641
0	C	0.303236	0.780333	0.241843
0	C	0.279214	0.536707	0.241678
0	C	0.51735	0.749413	0.237977
0	C	0.429401	0.599528	0.0239338
0	C	0.448038	0.836957	0.0309734
0	C	0.22002	0.628023	0.0327065
0	H	0.962874	0.107516	0.838066
0	H	0.950192	0.858243	0.855802
0	H	0.186694	0.0930662	0.825637
0	H	0.103497	0.931146	0.0904804
0	H	0.115885	0.180395	0.0735019
0	H	0.879648	0.946219	0.104646
0	H	0.628042	0.437528	0.164935
0	H	0.617988	0.193706	0.158914
0	H	0.855174	0.41885	0.157069
0	H	0.772496	0.25941	0.42757
0	H	0.785859	0.510132	0.428481
0	H	0.541453	0.280161	0.432112
0	H	0.294064	0.778844	0.501204
0	H	0.280336	0.528694	0.501
0	H	0.524956	0.758292	0.497465
0	H	0.438723	0.601117	0.764419
0	H	0.448316	0.845126	0.771161
0	H	0.21132	0.619384	0.773104
0	H	0.808172	0.0566624	0.777266
0	H	0.989516	0.750579	0.785733
0	H	0.29988	0.243325	0.759324
0	H	0.258255	0.98225	0.151271
0	H	0.0770728	0.288078	0.143066
0	H	0.766929	0.795656	0.170933
0	H	0.475853	0.392326	0.103625
0	H	0.655406	0.083363	0.100208
0	H	0.964284	0.571396	0.0941536
0	H	0.926264	0.309359	0.486206
0	H	0.744433	0.616444	0.494589
0	H	0.43414	0.128283	0.485945
0	H	0.140433	0.728987	0.442803
0	H	0.322444	0.422585	0.43441
0	H	0.632174	0.910192	0.442962
0	H	0.591057	0.646469	0.825931
0	H	0.410908	0.955289	0.829176
0	H	0.102229	0.466852	0.835132
0	H	0.99133	0.0831068	0.280178
0	H	0.934072	0.894248	0.293433
0	H	0.133299	0.0716617	0.262157
0	H	0.0754783	0.95577	0.649208
0	H	0.132412	0.144563	0.636027
0	H	0.933065	0.968426	0.667874
0	H	0.668035	0.42657	0.616715
0	H	0.639292	0.246632	0.607339
0	H	0.800502	0.384337	0.605508
0	H	0.730885	0.26854	0.974628
0	H	0.777847	0.459882	0.975279
0	H	0.59168	0.323055	0.97914
0	H	0.335574	0.769797	0.953999
0	H	0.289956	0.579658	0.954048
0	H	0.474006	0.716347	0.950268
0	H	0.398203	0.611518	0.312378
0	H	0.429068	0.792893	0.322463
0	H	0.265295	0.655668	0.323991
0	H	0.00661021	0.107101	0.587336
0	H	0.960594	0.906722	0.607183
0	H	0.139325	0.0518096	0.575265
0	H	0.0596726	0.931375	0.341238
0	H	0.105265	0.131856	0.322187
0	H	0.926774	0.987672	0.35518
0	H	0.669716	0.434986	0.912457
0	H	0.624848	0.239091	0.906104
0	H	0.809485	0.377063	0.905359
0	H	0.730068	0.260733	0.679921
0	H	0.781917	0.465713	0.680682
0	H	0.58574	0.322077	0.685322
0	H	0.336389	0.777465	0.24868
0	H	0.284246	0.573188	0.249
0	H	0.480494	0.716394	0.244481
0	H	0.396901	0.603484	0.0167748
0	H	0.441747	0.799985	0.0242557
0	H	0.256768	0.661164	0.0251525
0	H	0.754956	0.0986033	0.239865
0	H	0.947881	0.654878	0.246248
0	H	0.394832	0.291401	0.229377
0	H	0.311266	0.940367	0.687831
0	H	0.118734	0.383622	0.682027
0	H	0.67176	0.747432	0.701252
0	H	0.423106	0.436271	0.56355
0	H	0.607286	0.986021	0.559073
0	H	0.0642595	0.625422	0.551236
0	H	0.978149	0.268371	0.0167018
0	H	0.788352	0.716014	0.0423011
0	H	0.337413	0.0773922	0.0205844
0	H	0.0883074	0.769918	0.911799
0	H	0.278302	0.322871	0.886365
0	H	0.729139	0.961351	0.907773
0	H	0.643548	0.602422	0.365497
0	H	0.458773	0.0524809	0.369844
0	H	0.0023612	0.412946	0.377831
0	H	0.860418	0.168247	0.767446
0	H	0.876093	0.692774	0.775028
0	H	0.353889	0.186116	0.744765
0	H	0.206434	0.870817	0.160242
0	H	0.190261	0.346319	0.153244
0	H	0.712447	0.852358	0.184374
0	H	0.532947	0.505979	0.0987455
0	H	0.540394	0.0297772	0.0834518
0	H	0.0202174	0.514726	0.0760282
0	H	0.873316	0.196654	0.491432
0	H	0.859716	0.675346	0.494405
0	H	0.373986	0.179872	0.495534
0	H	0.19371	0.842003	0.437218
0	H	0.206851	0.364067	0.432694
0	H	0.692133	0.85813	0.432135
0	H	0.534085	0.532931	0.830259
0	H	0.525714	0.00953331	0.844097
0	H	0.0460782	0.523231	0.852378
0	H	0.852986	0.116781	0.549743
0	H	0.927596	0.73635	0.561024
0	H	0.311802	0.196515	0.535092
0	H	0.213474	0.921985	0.378705
0	H	0.139833	0.302795	0.368145
0	H	0.754829	0.84208	0.394752
0	H	0.522293	0.454987	0.882005
0	H	0.596292	0.0701242	0.875998
0	H	0.977765	0.528154	0.870946
0	H	0.881373	0.247132	0.71102
0	H	0.807551	0.633613	0.712235
0	H	0.416833	0.171471	0.712956
0	H	0.185329	0.791495	0.218206
0	H	0.260231	0.405948	0.216429
0	H	0.649343	0.867035	0.21594
0	H	0.544666	0.584023	0.0476141
0	H	0.47082	0.969172	0.053112
0	H	0.0885035	0.509981	0.0582549
0	H	0.89519	0.114285	0.300106
0	H	0.93869	0.784745	0.313703
0	H	0.264455	0.156284	0.286084
0	H	0.171226	0.924397	0.628356
0	H	0.128601	0.25438	0.61555
0	H	0.801969	0.88246	0.643913
0	H	0.56284	0.451036	0.630245
0	H	0.60326	0.115222	0.624035
0	H	0.932264	0.486959	0.620329
0	H	0.83984	0.24967	0.962616
0	H	0.802383	0.588885	0.963807
0	H	0.461326	0.21271	0.96543
0	H	0.226766	0.788908	0.966426
0	H	0.265391	0.450756	0.965131
0	H	0.604682	0.8258	0.963698
0	H	0.504003	0.587863	0.299252
0	H	0.464148	0.924303	0.305415
0	H	0.133766	0.55118	0.309234
0	H	0.73785	0.0535506	0.504977
0	H	0.996393	0.683356	0.506922
0	H	0.366132	0.307751	0.494106
0	H	0.328169	0.985389	0.422739
0	H	0.0702748	0.355016	0.421265
0	H	0.70039	0.731177	0.436233
0	H	0.403761	0.390747	0.828095
0	H	0.655037	0.0122853	0.82139
0	H	0.0375612	0.642533	0.818443
0	H	0.993475	0.313357	0.752254
0	H	0.741181	0.689926	0.778691
0	H	0.366018	0.0611157	0.75547
0	H	0.0728576	0.724902	0.176226
0	H	0.32547	0.34883	0.149974
0	H	0.700641	0.977705	0.172986
0	H	0.662794	0.647924	0.100885
0	H	0.410837	0.0260696	0.107854
0	H	0.0291077	0.395878	0.110658
0	H	0.918069	0.197221	0.875526
0	H	0.849662	0.722061	0.884883
0	H	0.323712	0.13195	0.865494
0	H	0.148599	0.841653	0.0532096
0	H	0.217085	0.316956	0.0459852
0	H	0.742662	0.906755	0.0647808
0	H	0.588697	0.531593	0.215779
0	H	0.517114	0.0599712	0.204422
0	H	0.991522	0.461939	0.203117
0	H	0.816315	0.168655	0.38065
0	H	0.884299	0.645384	0.378692
0	H	0.403838	0.236002	0.38455
0	H	0.250314	0.86972	0.550075
0	H	0.182605	0.393737	0.551582
0	H	0.662508	0.802505	0.545804
0	H	0.478105	0.507237	0.714414
0	H	0.549366	0.979123	0.725973
0	H	0.0749855	0.576339	0.726772
0	H	0.940924	0.150591	0.0192045
0	H	0.900626	0.791414	0.0351228
0	H	0.255691	0.113614	0.0116184
0	H	0.125591	0.888156	0.909208
0	H	0.16623	0.247465	0.894289
0	H	0.8108	0.92524	0.918273
0	H	0.607943	0.481949	0.354598
0	H	0.569764	0.128823	0.345144
0	H	0.922033	0.441587	0.343553
0	H	0.79402	0.216745	0.239332
0	H	0.831235	0.574407	0.239854
0	H	0.475761	0.258979	0.244319
0	H	0.272579	0.821694	0.689963
0	H	0.235468	0.464292	0.689703
0	H	0.59087	0.779675	0.685224
0	H	0.45895	0.557004	0.574804
0	H	0.496613	0.909811	0.584703
0	H	0.144649	0.596752	0.586083
0	H	0.860445	0.165747	0.980412
0	H	0.878281	0.694038	0.988419
0	H	0.354633	0.190735	0.957641
0	H	0.20602	0.873217	0.947296
0	H	0.188525	0.3446	0.939878
0	H	0.71207	0.848155	0.971455
0	H	0.529604	0.50109	0.311317
0	H	0.544197	0.0288532	0.296372
0	H	0.022402	0.521611	0.288521
0	H	0.874347	0.200693	0.278601
0	H	0.854466	0.673174	0.281872
0	H	0.376663	0.178866	0.282548
0	H	0.191927	0.837511	0.649967
0	H	0.212462	0.365488	0.645104
0	H	0.690056	0.860091	0.645136
0	H	0.536998	0.537635	0.617612
0	H	0.522161	0.00969805	0.631025
0	H	0.0443214	0.51689	0.639756
0	H	0.764628	0.993217	0.549472
0	H	0.0602715	0.771313	0.549315
0	H	0.277832	0.284379	0.533164
0	H	0.301247	0.0456267	0.37862
0	H	0.00645603	0.267023	0.379171
0	H	0.788706	0.7547	0.396584
0	H	0.426407	0.327416	0.872751
0	H	0.722619	0.0987682	0.864906
0	H	0.949049	0.61687	0.867506
0	H	0.96648	0.37366	0.713019
0	H	0.676862	0.602575	0.7289
0	H	0.454757	0.0868045	0.713191
0	H	0.0997372	0.664511	0.215594
0	H	0.389938	0.43613	0.199908
0	H	0.611932	0.952105	0.215457
0	H	0.640083	0.71121	0.0563539
0	H	0.343356	0.939534	0.0647661
0	H	0.117644	0.421659	0.0615718
0	H	0.95699	0.103309	0.167225
0	H	0.997489	0.909519	0.286875
0	H	0.19006	0.0960597	0.153419
0	H	0.109039	0.934555	0.761543
0	H	0.0690237	0.129366	0.642494
0	H	0.876216	0.942973	0.776791
0	H	0.616619	0.42084	0.505551
0	H	0.633192	0.196123	0.494646
0	H	0.851939	0.429641	0.491365
0	H	0.783031	0.276336	0.0870949
0	H	0.767464	0.502056	0.0846452
0	H	0.548984	0.269182	0.0883213
0	H	0.283374	0.761951	0.841765
0	H	0.298825	0.536657	0.843665
0	H	0.51792	0.769365	0.840004
0	H	0.44997	0.618013	0.423489
0	H	0.432948	0.842574	0.43437
0	H	0.215279	0.608229	0.437332
0	H	0.811569	0.978075	0.336419
0	H	0.0762652	0.8338	0.337711
0	H	0.215184	0.242581	0.313815
0	H	0.25449	0.0608019	0.592262
0	H	0.990512	0.204653	0.591145
0	H	0.851437	0.796515	0.615707
0	H	0.472162	0.310085	0.661313
0	H	0.742655	0.162414	0.653955
0	H	0.884378	0.572057	0.656077
0	H	0.921162	0.388994	0.930995
0	H	0.659055	0.538285	0.935446
0	H	0.518127	0.131816	0.928191
0	H	0.145233	0.649265	0.998022
0	H	0.407847	0.500508	0.993609
0	H	0.548466	0.906984	0.0008291
0	H	0.59446	0.728598	0.268145
0	H	0.323587	0.87598	0.275836
0	H	0.182286	0.466479	0.273097
0	H	0.0142055	0.146785	0.258216
0	H	0.95046	0.856922	0.183882
0	H	0.165246	0.0390229	0.253833
0	H	0.0517526	0.891868	0.669067
0	H	0.116073	0.181952	0.74545
0	H	0.900017	0.999975	0.676971
0	H	0.667494	0.479548	0.55346
0	H	0.57943	0.196541	0.555447
0	H	0.851239	0.376574	0.557582
0	H	0.733845	0.216801	0.0375416
0	H	0.828885	0.516432	0.0445303
0	H	0.534113	0.314629	0.048277
0	H	0.33258	0.821511	0.890973
0	H	0.237964	0.523518	0.886557
0	H	0.530926	0.722799	0.883292
0	H	0.399499	0.558992	0.376346
0	H	0.487959	0.844106	0.376784
0	H	0.212719	0.65999	0.376117
