#******************************************
#
# CIF file created by Zeo++
# Zeo++ is an open source package to
# analyze microporous materials
#
#*******************************************

_cell_length_a		22.6961(0)
_cell_length_b		12.6275(0)
_cell_length_c		20.2288(0)
_cell_angle_alpha		90(0)
_cell_angle_beta		85.8276(0)
_cell_angle_gamma		90(0)

_symmetry_space_group_name_H-M		'P1'
_symmetry_Int_Tables_number		1
_symmetry_cell_setting		Monoclinic

loop_
_symmetry_equiv_pos_as_xyz
'+x,+y,+z'

loop_
_atom_site_label
_atom_site_type_symbol
_atom_site_fract_x
_atom_site_fract_y
_atom_site_fract_z
0	S	0.38122	0.899715	0.155612
0	S	0.569331	0.917323	0.339036
0	S	0.567155	0.160275	0.835782
0	S	0.375349	0.155724	0.655894
0	S	0.884711	0.403925	0.159233
0	S	0.0697482	0.40637	0.336448
0	S	0.0637302	0.659539	0.834426
0	S	0.878186	0.655928	0.656736
0	S	0.15062	0.0822551	0.147262
0	S	0.801456	0.0845084	0.364366
0	S	0.798149	0.980646	0.844138
0	S	0.144557	0.979923	0.629537
0	S	0.653504	0.584704	0.150793
0	S	0.301076	0.577722	0.360832
0	S	0.295373	0.481709	0.842809
0	S	0.646855	0.48301	0.632293
0	O	0.269442	0.836395	0.213767
0	O	0.682329	0.843591	0.289796
0	O	0.678454	0.224161	0.777847
0	O	0.261835	0.222891	0.704971
0	O	0.773157	0.339533	0.217756
0	O	0.183102	0.33762	0.287102
0	O	0.175209	0.725519	0.775663
0	O	0.764786	0.72388	0.706774
0	O	0.259872	0.195494	0.116271
0	O	0.694943	0.204784	0.385617
0	O	0.689274	0.866575	0.875436
0	O	0.252067	0.863167	0.607114
0	O	0.763793	0.695059	0.117118
0	O	0.193046	0.69501	0.385267
0	O	0.185268	0.369843	0.876152
0	O	0.755211	0.367016	0.606936
0	O	0.388854	0.801123	0.190654
0	O	0.557304	0.822354	0.302203
0	O	0.559787	0.258988	0.800687
0	O	0.383701	0.252357	0.692678
0	O	0.893859	0.306693	0.195131
0	O	0.0601572	0.31033	0.299607
0	O	0.054038	0.756789	0.798769
0	O	0.88749	0.751801	0.69388
0	O	0.433271	0.966309	0.145581
0	O	0.520912	0.992176	0.349077
0	O	0.514823	0.0943744	0.845583
0	O	0.425963	0.0853566	0.647474
0	O	0.935821	0.47255	0.147929
0	O	0.0199497	0.478491	0.345778
0	O	0.0129294	0.590143	0.845639
0	O	0.928176	0.584275	0.647253
0	O	0.107019	0.027048	0.190342
0	O	0.843413	0.0164518	0.327302
0	O	0.84173	0.0354725	0.800829
0	O	0.101977	0.0460088	0.667175
0	O	0.610157	0.531992	0.195564
0	O	0.343081	0.511889	0.322203
0	O	0.338684	0.534969	0.798283
0	O	0.604844	0.548131	0.671442
0	O	0.177713	0.0212429	0.0920925
0	O	0.769711	0.0369239	0.421925
0	O	0.77076	0.0422072	0.898915
0	O	0.175624	0.0294265	0.572211
0	O	0.679231	0.521221	0.0960929
0	O	0.270689	0.527856	0.418447
0	O	0.269345	0.544985	0.897451
0	O	0.676905	0.533916	0.574816
0	N	0.330565	0.976127	0.206582
0	N	0.624457	0.987642	0.29057
0	N	0.617838	0.0838422	0.785067
0	N	0.321348	0.0810954	0.703233
0	N	0.833826	0.479853	0.210015
0	N	0.123796	0.479717	0.288414
0	N	0.114888	0.584718	0.783384
0	N	0.824212	0.581847	0.704327
0	N	0.209245	0.107614	0.19841
0	N	0.74699	0.110512	0.307752
0	N	0.739676	0.954136	0.792983
0	N	0.199531	0.955093	0.685715
0	N	0.712849	0.610982	0.200692
0	N	0.245537	0.604397	0.305867
0	N	0.236103	0.455006	0.792912
0	N	0.70269	0.45642	0.686879
0	C	0.346866	0.080627	0.228578
0	C	0.611954	0.0931097	0.267134
0	C	0.601777	0.979161	0.763189
0	C	0.334917	0.975445	0.725543
0	C	0.850045	0.584677	0.231573
0	C	0.110483	0.585411	0.265907
0	C	0.0989479	0.479824	0.761693
0	C	0.837769	0.476056	0.72652
0	C	0.312379	0.169369	0.213688
0	C	0.646506	0.179749	0.285405
0	C	0.636764	0.890966	0.7779
0	C	0.300747	0.888405	0.7071
0	C	0.815826	0.673101	0.215451
0	C	0.144745	0.672154	0.284688
0	C	0.13339	0.391673	0.777756
0	C	0.803688	0.389259	0.707504
0	C	0.328533	0.269911	0.235532
0	C	0.632229	0.281824	0.264488
0	C	0.6211	0.790191	0.756063
0	C	0.315518	0.786339	0.727614
0	C	0.831917	0.774144	0.23647
0	C	0.130416	0.77433	0.264047
0	C	0.117535	0.290583	0.756632
0	C	0.818225	0.28702	0.727868
0	H	0.301816	0.339195	0.225004
0	H	0.658678	0.349691	0.278226
0	H	0.64827	0.721383	0.766345
0	H	0.28923	0.718281	0.713828
0	H	0.805284	0.843058	0.225085
0	H	0.157126	0.841918	0.277682
0	H	0.144377	0.221889	0.767887
0	H	0.791699	0.219323	0.714003
0	C	0.378552	0.282431	0.271155
0	C	0.584148	0.297665	0.226289
0	C	0.570952	0.776846	0.720768
0	C	0.363774	0.770775	0.765567
0	C	0.881864	0.787449	0.272112
0	C	0.082192	0.790469	0.226131
0	C	0.0675854	0.2769	0.721041
0	C	0.866463	0.270988	0.765788
0	H	0.390133	0.36198	0.288101
0	H	0.573225	0.378739	0.211352
0	H	0.559708	0.697078	0.703848
0	H	0.374927	0.689769	0.780415
0	H	0.893649	0.867333	0.288069
0	H	0.071141	0.871625	0.211579
0	H	0.055937	0.196882	0.705116
0	H	0.877725	0.189798	0.780088
0	C	0.412878	0.194433	0.284973
0	C	0.550429	0.211427	0.207958
0	C	0.536045	0.864215	0.707276
0	C	0.397313	0.857317	0.783831
0	C	0.915856	0.699646	0.287201
0	C	0.0486572	0.704194	0.207439
0	C	0.0333762	0.364432	0.706014
0	C	0.899796	0.357357	0.784763
0	H	0.452409	0.203811	0.312384
0	H	0.51273	0.22376	0.178091
0	H	0.496416	0.853971	0.680205
0	H	0.43518	0.845278	0.813492
0	H	0.955345	0.709775	0.314522
0	H	0.0109059	0.716599	0.177678
0	H	0.993891	0.354023	0.678731
0	H	0.937543	0.344989	0.814545
0	C	0.39712	0.0933005	0.264207
0	C	0.564315	0.108844	0.227792
0	C	0.551373	0.965672	0.727945
0	C	0.382952	0.959846	0.764341
0	C	0.899935	0.597922	0.267696
0	C	0.06286	0.601391	0.226609
0	C	0.0491054	0.466262	0.725546
0	C	0.885402	0.46016	0.765816
0	H	0.424575	0.0252821	0.275721
0	H	0.537292	0.0421247	0.213044
0	H	0.523417	0.0331892	0.716707
0	H	0.409932	0.0267016	0.778986
0	H	0.927004	0.52993	0.280445
0	H	0.0360935	0.534663	0.21127
0	H	0.0218975	0.534071	0.71283
0	H	0.912014	0.526958	0.781323
0	C	0.260872	0.160689	0.172498
0	C	0.695611	0.168193	0.329686
0	C	0.688247	0.900668	0.819044
0	C	0.251339	0.899158	0.663134
0	C	0.764579	0.662801	0.173989
0	C	0.19391	0.660348	0.328884
0	C	0.184559	0.402344	0.819333
0	C	0.754429	0.401121	0.663467
0	C	0.278381	0.925376	0.234059
0	C	0.676669	0.932648	0.267938
0	C	0.66983	0.135187	0.757451
0	C	0.268543	0.133881	0.726437
0	C	0.781721	0.428977	0.237588
0	C	0.176461	0.426337	0.265248
0	C	0.166849	0.636124	0.755817
0	C	0.771563	0.634789	0.728042
0	C	0.238457	0.981861	0.283801
0	C	0.720395	0.985418	0.220711
0	C	0.709882	0.0792699	0.707601
0	C	0.225606	0.0791011	0.773557
0	C	0.741464	0.485929	0.286769
0	C	0.219356	0.480871	0.217915
0	C	0.207214	0.579345	0.706617
0	C	0.728839	0.579458	0.775174
0	C	0.204041	0.068772	0.265974
0	C	0.755191	0.0705012	0.240607
0	C	0.744711	0.99288	0.725387
0	C	0.191228	0.993836	0.75315
0	C	0.707718	0.573483	0.268556
0	C	0.253363	0.566747	0.238163
0	C	0.241233	0.492241	0.724991
0	C	0.694943	0.493612	0.754693
0	C	0.163486	0.116011	0.312621
0	C	0.798388	0.115205	0.195957
0	C	0.785499	0.946324	0.678718
0	C	0.148356	0.947709	0.797585
0	C	0.667568	0.622198	0.315003
0	C	0.295332	0.6145	0.193465
0	C	0.281546	0.443658	0.678695
0	C	0.652967	0.445501	0.799248
0	H	0.136657	0.184053	0.298644
0	H	0.825099	0.183004	0.210641
0	H	0.812547	0.878552	0.692677
0	H	0.121844	0.87993	0.782445
0	H	0.641398	0.690784	0.300761
0	H	0.321301	0.68307	0.208524
0	H	0.307922	0.375292	0.693136
0	H	0.627044	0.377009	0.783962
0	C	0.157568	0.0760665	0.377111
0	C	0.806821	0.0741622	0.131888
0	C	0.791349	0.986693	0.614324
0	C	0.139959	0.987319	0.862009
0	C	0.661072	0.582677	0.379565
0	C	0.303504	0.575582	0.128858
0	C	0.287945	0.482929	0.614072
0	C	0.644668	0.484048	0.863924
0	H	0.126219	0.11274	0.41374
0	H	0.840493	0.108684	0.0971472
0	H	0.823021	0.95088	0.577697
0	H	0.106494	0.951685	0.896545
0	H	0.630278	0.620828	0.416151
0	H	0.335989	0.612912	0.0939345
0	H	0.318943	0.44506	0.577577
0	H	0.612104	0.44654	0.898679
0	C	0.191677	0.98995	0.395361
0	C	0.772365	0.989755	0.111809
0	C	0.756761	0.0721741	0.596091
0	C	0.174178	0.0716567	0.882676
0	C	0.693775	0.494892	0.397921
0	C	0.27034	0.489681	0.10856
0	C	0.254842	0.570058	0.595463
0	C	0.67782	0.569782	0.884522
0	H	0.18633	0.959065	0.446083
0	H	0.779508	0.957798	0.0617584
0	H	0.761955	0.103147	0.545353
0	H	0.167114	0.102289	0.93305
0	H	0.687302	0.46345	0.448388
0	H	0.277793	0.458805	0.0582724
0	H	0.261125	0.601073	0.54487
0	H	0.670282	0.600301	0.934893
0	C	0.232179	0.943296	0.34898
0	C	0.728981	0.945838	0.155956
0	C	0.715895	0.117955	0.642444
0	C	0.217145	0.11716	0.838691
0	C	0.734062	0.447058	0.351821
0	C	0.228094	0.442769	0.152845
0	C	0.214373	0.617736	0.64144
0	C	0.720057	0.617038	0.840389
0	H	0.25867	0.87581	0.363277
0	H	0.701978	0.879858	0.140262
0	H	0.688913	0.184796	0.628141
0	H	0.243864	0.183233	0.854787
0	H	0.759435	0.378293	0.36633
0	H	0.202211	0.375545	0.136834
0	H	0.188657	0.685933	0.626721
0	H	0.745919	0.684165	0.856603
0	C	0.266847	0.809967	0.902726
0	C	0.67467	0.797239	0.59236
0	C	0.680873	0.254252	0.0884719
0	C	0.274722	0.263842	0.397721
0	C	0.768138	0.299826	0.910064
0	C	0.172392	0.296374	0.593241
0	C	0.179342	0.7629	0.0843492
0	C	0.777151	0.767894	0.399328
0	H	0.219903	0.832639	0.90487
0	H	0.723391	0.798373	0.587608
0	H	0.727424	0.229438	0.0871723
0	H	0.226134	0.271217	0.402787
0	H	0.72417	0.335738	0.907786
0	H	0.22107	0.291187	0.588374
0	H	0.224818	0.732689	0.0845896
0	H	0.728788	0.779214	0.404845
0	H	0.268213	0.724255	0.890793
0	H	0.662134	0.71651	0.60885
0	H	0.680677	0.340573	0.0986183
0	H	0.291293	0.340082	0.377247
0	H	0.761893	0.212926	0.905525
0	H	0.156697	0.219647	0.613695
0	H	0.182217	0.849878	0.0914269
0	H	0.795525	0.84171	0.377185
0	H	0.288329	0.851533	0.859542
0	H	0.661386	0.851387	0.633506
0	H	0.658554	0.215948	0.132378
0	H	0.284589	0.203297	0.359261
0	H	0.794043	0.324413	0.864499
0	H	0.161569	0.356571	0.631693
0	H	0.155374	0.731398	0.129403
0	H	0.785097	0.70511	0.36188
0	C	0.295608	0.83459	0.964492
0	C	0.648317	0.828231	0.530194
0	C	0.652045	0.227823	0.0270323
0	C	0.29973	0.235807	0.461194
0	C	0.797686	0.328107	0.970659
0	C	0.147134	0.323633	0.529763
0	C	0.149973	0.735002	0.0235613
0	C	0.801982	0.74	0.462947
0	C	0.276245	0.92015	0.00475421
0	C	0.669558	0.917131	0.494126
0	C	0.671824	0.142149	0.987107
0	C	0.277407	0.149109	0.498659
0	C	0.777794	0.414343	0.0100494
0	C	0.169551	0.409981	0.492019
0	C	0.170951	0.650485	0.983334
0	C	0.779132	0.653701	0.500444
0	H	0.238753	0.968514	0.991874
0	H	0.707016	0.962653	0.51031
0	H	0.709493	0.0944239	0.000228354
0	H	0.240058	0.103222	0.482587
0	H	0.739399	0.460504	0.997307
0	H	0.207518	0.454924	0.507484
0	H	0.20992	0.605534	0.995657
0	H	0.741216	0.609096	0.484581
0	C	0.302873	0.942327	0.0631254
0	C	0.644888	0.946978	0.435945
0	C	0.645407	0.118968	0.928729
0	C	0.300883	0.122001	0.558058
0	C	0.805027	0.440011	0.0674684
0	C	0.145432	0.437875	0.433139
0	C	0.144068	0.625037	0.925674
0	C	0.80275	0.625426	0.55955
0	H	0.285901	0.00947238	0.0929826
0	H	0.662924	0.0170131	0.409753
0	H	0.662831	0.0519717	0.899015
0	H	0.281924	0.0537177	0.585333
0	H	0.787837	0.507965	0.0964558
0	H	0.164228	0.506348	0.405943
0	H	0.162222	0.558542	0.896022
0	H	0.78359	0.557046	0.586556
0	C	0.349316	0.879682	0.0830766
0	C	0.598901	0.887888	0.41155
0	C	0.598613	0.180499	0.90859
0	C	0.346805	0.181514	0.582212
0	C	0.852422	0.379885	0.0875022
0	C	0.0989984	0.379061	0.409516
0	C	0.0958385	0.683559	0.906268
0	C	0.849169	0.68376	0.583599
0	C	0.369723	0.795287	0.042063
0	C	0.577229	0.799118	0.447643
0	C	0.577507	0.264538	0.949512
0	C	0.36955	0.268082	0.544686
0	C	0.873233	0.294611	0.0474733
0	C	0.0765668	0.292212	0.446952
0	C	0.073869	0.766952	0.94719
0	C	0.872032	0.770567	0.546423
0	H	0.40652	0.746016	0.0561657
0	H	0.541432	0.751562	0.429351
0	H	0.540273	0.312677	0.935393
0	H	0.405357	0.315959	0.562648
0	H	0.910759	0.247342	0.0617241
0	H	0.0404992	0.244722	0.429274
0	H	0.0356776	0.812913	0.933465
0	H	0.908054	0.817775	0.564477
0	C	0.343392	0.772963	0.983748
0	C	0.601272	0.769944	0.506256
0	C	0.603719	0.28798	0.00773181
0	C	0.34657	0.294761	0.485053
0	C	0.84645	0.269038	0.98995
0	C	0.100016	0.26501	0.506273
0	C	0.100351	0.792341	0.0049472
0	C	0.849071	0.798136	0.486905
0	H	0.35888	0.706604	0.95259
0	H	0.584447	0.700719	0.533907
0	H	0.587687	0.354082	0.0387857
0	H	0.364089	0.36252	0.456453
0	H	0.86225	0.202086	0.959529
0	H	0.0827391	0.196983	0.534787
0	H	0.0835971	0.857846	0.036055
0	H	0.866738	0.866036	0.458556
0	C	0.0547801	0.491638	0.0512514
0	C	0.906081	0.498394	0.441189
0	C	0.893996	0.572582	0.94219
0	C	0.0426268	0.56435	0.551674
0	C	0.555853	0.992409	0.0550125
0	C	0.402424	0.994219	0.437195
0	C	0.39221	0.073342	0.938663
0	C	0.541918	0.0700484	0.555009
0	H	0.0115366	0.511999	0.0771844
0	H	0.945596	0.521084	0.408787
0	H	0.936825	0.551048	0.915747
0	H	0.0026823	0.541855	0.583443
0	H	0.510724	0.00751421	0.0780214
0	H	0.443231	0.0162197	0.40673
0	H	0.436648	0.0560331	0.9146
0	H	0.500837	0.0499457	0.585574
0	H	0.0480659	0.488824	0.998008
0	H	0.919907	0.496187	0.492193
0	H	0.901524	0.576637	0.995206
0	H	0.0296663	0.565987	0.500322
0	H	0.552918	0.993467	0.00104649
0	H	0.41353	0.994913	0.48923
0	H	0.396369	0.0734197	0.992444
0	H	0.53068	0.0704762	0.503016
0	H	0.0847098	0.558552	0.0588921
0	H	0.874191	0.563748	0.438761
0	H	0.863613	0.505925	0.935709
0	H	0.0744765	0.499099	0.554986
0	H	0.582939	0.0610781	0.0674534
0	H	0.370831	0.0591622	0.431381
0	H	0.36392	0.00547845	0.927754
0	H	0.572569	0.00358841	0.560563
0	C	0.0794443	0.391094	0.0757122
0	C	0.879852	0.396289	0.421323
0	C	0.869439	0.672892	0.917246
0	C	0.068431	0.666701	0.571759
0	C	0.581332	0.892263	0.0789392
0	C	0.377452	0.890932	0.417661
0	C	0.367253	0.173959	0.914748
0	C	0.568331	0.172	0.574834
0	C	0.0570068	0.347301	0.136295
0	C	0.897204	0.349932	0.359711
0	C	0.892317	0.716541	0.856806
0	C	0.0507953	0.71244	0.633486
0	C	0.559957	0.849315	0.140191
0	C	0.396373	0.843168	0.356948
0	C	0.390358	0.219057	0.854817
0	C	0.550456	0.219207	0.636042
0	H	0.020844	0.387317	0.165335
0	H	0.930708	0.389238	0.326532
0	H	0.928735	0.676614	0.828149
0	H	0.0175087	0.672288	0.666535
0	H	0.523777	0.888947	0.169424
0	H	0.430552	0.881577	0.324388
0	H	0.427467	0.180635	0.826491
0	H	0.516185	0.181073	0.668681
0	C	0.0796228	0.252905	0.159415
0	C	0.872962	0.25417	0.340949
0	C	0.869721	0.810647	0.833229
0	C	0.0744645	0.808555	0.652459
0	C	0.583337	0.755704	0.163385
0	C	0.372609	0.746957	0.338245
0	C	0.367174	0.312854	0.831612
0	C	0.575208	0.314421	0.654933
0	H	0.0609578	0.219938	0.206982
0	H	0.887462	0.219792	0.292387
0	H	0.888664	0.843492	0.785748
0	H	0.0597291	0.842493	0.701093
0	H	0.565745	0.723624	0.211622
0	H	0.387961	0.711709	0.290243
0	H	0.385878	0.346599	0.784303
0	H	0.560642	0.349359	0.703285
0	C	0.12562	0.200737	0.122324
0	C	0.830483	0.203048	0.38363
0	C	0.823319	0.862683	0.869737
0	C	0.116624	0.860694	0.609874
0	C	0.628705	0.703011	0.125527
0	C	0.329384	0.696532	0.380284
0	C	0.320361	0.36365	0.868219
0	C	0.618355	0.364533	0.612583
0	C	0.14887	0.245296	0.0621808
0	C	0.812659	0.24951	0.445198
0	C	0.799666	0.818296	0.929747
0	C	0.134813	0.814776	0.548269
0	C	0.650803	0.746549	0.0647064
0	C	0.310238	0.743944	0.441107
0	C	0.296685	0.318127	0.927816
0	C	0.636579	0.31751	0.551375
0	H	0.185697	0.205795	0.0340393
0	H	0.779162	0.210049	0.478664
0	H	0.762536	0.857671	0.957419
0	H	0.168126	0.85496	0.514962
0	H	0.687121	0.706647	0.035939
0	H	0.276151	0.704929	0.474009
0	H	0.259264	0.356589	0.955562
0	H	0.670603	0.35614	0.51824
0	C	0.125997	0.338979	0.0387921
0	C	0.836918	0.344898	0.463915
0	C	0.822496	0.724911	0.953592
0	C	0.111128	0.718981	0.529342
0	C	0.627355	0.839853	0.0413768
0	C	0.333882	0.839939	0.459633
0	C	0.319852	0.224585	0.951111
0	C	0.611989	0.222393	0.532672
0	H	0.143719	0.371905	0.991466
0	H	0.822568	0.379591	0.511972
0	H	0.804476	0.692132	0.000803839
0	H	0.125725	0.684697	0.48125
0	H	0.64426	0.871931	0.993557
0	H	0.318572	0.875616	0.507067
0	H	0.301713	0.190855	0.997996
0	H	0.626559	0.18712	0.484898
