#******************************************
#
# CIF file created by Zeo++
# Zeo++ is an open source package to
# analyze microporous materials
#
#*******************************************

_cell_length_a		13.5019(0)
_cell_length_b		16.7449(0)
_cell_length_c		19.2659(0)
_cell_angle_alpha		67.1615(0)
_cell_angle_beta		71.1083(0)
_cell_angle_gamma		89.1449(0)

_symmetry_space_group_name_H-M		'P1'
_symmetry_Int_Tables_number		1
_symmetry_cell_setting		Triclinic

loop_
_symmetry_equiv_pos_as_xyz
'+x,+y,+z'

loop_
_atom_site_label
_atom_site_type_symbol
_atom_site_fract_x
_atom_site_fract_y
_atom_site_fract_z
0	O	0.511475	0.260634	0.122991
0	O	0.579023	0.823911	0.855279
0	O	0.440001	0.139099	0.394548
0	O	0.650985	0.945595	0.583659
0	O	0.941377	0.680766	0.0988213
0	O	0.149278	0.403724	0.879286
0	O	0.999253	0.639343	0.331072
0	O	0.0912781	0.445156	0.647117
0	O	0.210751	0.0952122	0.334918
0	O	0.880105	0.989514	0.643278
0	O	0.400421	0.106434	0.0864339
0	O	0.689987	0.978098	0.891794
0	O	0.698843	0.568004	0.594005
0	O	0.39154	0.516404	0.384205
0	O	0.753861	0.495502	0.379641
0	O	0.336976	0.589211	0.598354
0	N	0.47367	0.198438	0.258944
0	N	0.616985	0.886126	0.719304
0	N	0.976951	0.662957	0.212136
0	N	0.113647	0.421538	0.765997
0	N	0.809189	0.102895	0.00499676
0	N	0.281285	0.981587	0.973184
0	N	0.838355	0.88365	0.412869
0	N	0.252128	0.200781	0.565296
0	N	0.298479	0.096546	0.210982
0	N	0.792114	0.988067	0.767213
0	N	0.72437	0.529822	0.487969
0	N	0.366237	0.55475	0.490104
0	N	0.341285	0.852033	0.534948
0	N	0.749216	0.23245	0.443224
0	N	0.570797	0.70737	0.2002
0	N	0.51961	0.37708	0.777978
0	C	0.74688	0.0935801	0.0843524
0	C	0.343607	0.990909	0.893827
0	C	0.672282	0.153467	0.0955949
0	C	0.418211	0.931017	0.882602
0	H	0.660239	0.204932	0.0436441
0	H	0.430225	0.879534	0.93455
0	C	0.612203	0.146561	0.17088
0	C	0.47834	0.937973	0.807306
0	C	0.531315	0.206959	0.179358
0	C	0.559253	0.877576	0.798867
0	C	0.490554	0.138562	0.329544
0	C	0.600227	0.946046	0.648676
0	C	0.569596	0.0783771	0.31823
0	C	0.521063	0.00614307	0.659955
0	C	0.586427	0.0169812	0.384674
0	C	0.504161	0.0674748	0.593511
0	H	0.5408	0.0120217	0.444998
0	H	0.549801	0.0724599	0.533178
0	C	0.663576	0.960561	0.37518
0	C	0.426895	0.12382	0.602993
0	H	0.673977	0.913173	0.430036
0	H	0.416448	0.171128	0.548118
0	C	0.723078	0.963736	0.300289
0	C	0.367411	0.12069	0.677877
0	C	0.803667	0.905114	0.289779
0	C	0.286811	0.179333	0.688362
0	C	0.851731	0.861219	0.346466
0	C	0.238733	0.223234	0.631689
0	C	0.906712	0.788886	0.340383
0	C	0.183724	0.295549	0.637783
0	H	0.94139	0.752172	0.385944
0	H	0.149014	0.332223	0.592244
0	C	0.915	0.763754	0.279088
0	C	0.175496	0.320707	0.699059
0	C	0.966548	0.68482	0.278424
0	C	0.123976	0.399682	0.699706
0	C	0.935801	0.7084	0.149679
0	C	0.154811	0.376074	0.828473
0	C	0.887847	0.788328	0.151417
0	C	0.202693	0.296145	0.826715
0	C	0.85364	0.839098	0.0896904
0	C	0.236885	0.245352	0.888452
0	H	0.859984	0.819779	0.040333
0	H	0.230567	0.264686	0.937814
0	C	0.811248	0.916976	0.0891215
0	C	0.279217	0.167458	0.889038
0	H	0.787943	0.956196	0.0375156
0	H	0.302507	0.128226	0.940654
0	C	0.798742	0.943118	0.151161
0	C	0.291747	0.141338	0.826987
0	C	0.751874	0.0228187	0.152391
0	C	0.338603	0.0616337	0.825769
0	C	0.627818	0.0826249	0.240229
0	C	0.462752	0.00188334	0.737951
0	C	0.701351	0.0232212	0.230579
0	C	0.389147	0.061238	0.747578
0	C	0.826753	0.887566	0.219091
0	C	0.263745	0.196893	0.759054
0	C	0.876398	0.81323	0.216248
0	C	0.21411	0.271233	0.7619
0	C	0.776186	0.163007	0.937585
0	C	0.314262	0.921463	0.0406043
0	H	0.78923	0.23275	0.927249
0	H	0.301278	0.851726	0.0508998
0	H	0.690113	0.144349	0.954075
0	H	0.400327	0.940157	0.0241377
0	C	0.837141	0.150509	0.860636
0	C	0.253254	0.933899	0.117582
0	H	0.816806	0.0817214	0.870998
0	H	0.273604	0.00265637	0.107287
0	H	0.811312	0.192584	0.810806
0	H	0.279034	0.89175	0.167416
0	C	0.956484	0.168522	0.838585
0	C	0.133913	0.915921	0.139572
0	H	0.998619	0.157011	0.784211
0	H	0.0917312	0.927395	0.193955
0	H	0.980568	0.237911	0.823069
0	H	0.109837	0.846545	0.155039
0	C	0.988953	0.108595	0.908881
0	C	0.101505	0.975891	0.0692632
0	H	0.074222	0.124248	0.895299
0	H	0.0162357	0.960295	0.0828111
0	H	0.976177	0.0397598	0.916884
0	H	0.114337	0.044715	0.061272
0	C	0.926054	0.117367	0.987159
0	C	0.164425	0.967125	0.990995
0	H	0.945197	0.0672607	0.0377667
0	H	0.145296	0.0172245	0.940374
0	H	0.949598	0.183135	0.982679
0	H	0.140892	0.901361	0.995459
0	C	0.889787	0.972279	0.392445
0	C	0.200694	0.112158	0.585742
0	H	0.89143	0.0178539	0.332094
0	H	0.199058	0.0665778	0.646037
0	H	0.837409	0.995412	0.437135
0	H	0.253023	0.0890456	0.541
0	C	0.00156513	0.970887	0.396475
0	C	0.0888659	0.113578	0.581686
0	H	0.0362678	0.0376928	0.381557
0	H	0.0541794	0.0467784	0.59662
0	H	0.0539889	0.950319	0.350654
0	H	0.0364688	0.134158	0.627504
0	C	0.998033	0.908417	0.480345
0	C	0.0924236	0.176018	0.497827
0	H	0.0776089	0.908115	0.484692
0	H	0.0128278	0.176367	0.493513
0	H	0.949223	0.931409	0.525958
0	H	0.14115	0.152973	0.452225
0	C	0.952524	0.816038	0.499161
0	C	0.138079	0.2684	0.478911
0	H	0.00831752	0.789455	0.459596
0	H	0.0822637	0.295091	0.518398
0	H	0.943809	0.771515	0.561534
0	H	0.14686	0.312862	0.416509
0	C	0.844142	0.815888	0.489024
0	C	0.246372	0.268526	0.489123
0	H	0.784844	0.830474	0.537414
0	H	0.305709	0.253905	0.440746
0	H	0.816062	0.750013	0.496434
0	H	0.274499	0.334409	0.481683
0	C	0.399361	0.26394	0.268797
0	C	0.691158	0.820526	0.70948
0	H	0.324895	0.227723	0.318937
0	H	0.765695	0.856674	0.659376
0	H	0.380243	0.295346	0.212832
0	H	0.710216	0.789051	0.765492
0	C	0.447608	0.332446	0.287103
0	C	0.642871	0.752136	0.691122
0	H	0.385818	0.372685	0.303635
0	H	0.704561	0.711814	0.67461
0	H	0.469637	0.298632	0.341249
0	H	0.62093	0.786022	0.636938
0	C	0.54429	0.391153	0.217576
0	C	0.546047	0.693458	0.760582
0	H	0.603917	0.350443	0.198894
0	H	0.486541	0.734213	0.779325
0	H	0.582541	0.430595	0.238879
0	H	0.507717	0.654222	0.739161
0	C	0.517259	0.451898	0.145242
0	C	0.572974	0.632461	0.832871
0	H	0.485743	0.414933	0.118951
0	H	0.604673	0.669203	0.859254
0	H	0.587647	0.494853	0.0978309
0	H	0.502481	0.589594	0.880224
0	H	0.458407	0.49342	0.161578
0	H	0.631621	0.590828	0.816471
0	C	0.034032	0.585954	0.210024
0	C	0.056451	0.498477	0.768205
0	H	0.00580013	0.556774	0.175932
0	H	0.0845961	0.527582	0.802386
0	H	0.0134431	0.536294	0.272991
0	H	0.0771414	0.548226	0.705229
0	C	0.153743	0.614291	0.172273
0	C	0.936792	0.470139	0.805783
0	H	0.171905	0.669146	0.112829
0	H	0.918562	0.41521	0.865255
0	H	0.180077	0.639813	0.209419
0	H	0.910602	0.444603	0.768589
0	C	0.215474	0.539305	0.162856
0	C	0.874954	0.545023	0.815217
0	H	0.298524	0.566949	0.124273
0	H	0.791865	0.517337	0.853778
0	H	0.184466	0.510548	0.129928
0	H	0.905829	0.573846	0.848157
0	C	0.213563	0.46785	0.242292
0	C	0.876812	0.616443	0.735767
0	H	0.246021	0.494217	0.275557
0	H	0.844543	0.58999	0.702466
0	H	0.26078	0.416856	0.232462
0	H	0.829387	0.667348	0.745586
0	H	0.133182	0.436354	0.281175
0	H	0.957146	0.648062	0.696917
0	C	0.360293	0.882865	0.449937
0	C	0.730264	0.201663	0.52823
0	C	0.306248	0.951873	0.413124
0	C	0.784372	0.132694	0.565049
0	H	0.247465	0.979313	0.449387
0	H	0.843165	0.105278	0.528775
0	C	0.32783	0.987354	0.331558
0	C	0.762801	0.0972576	0.646613
0	C	0.273626	0.0622394	0.29579
0	C	0.817063	0.0224029	0.682405
0	C	0.377844	0.0678549	0.158753
0	C	0.712652	0.0167201	0.819419
0	C	0.425654	0.990398	0.19764
0	C	0.664827	0.0941385	0.780535
0	C	0.496304	0.955306	0.150591
0	C	0.594067	0.129181	0.827576
0	H	0.518567	0.986051	0.0851196
0	H	0.571743	0.0984048	0.893055
0	C	0.538756	0.878983	0.186591
0	C	0.551587	0.205477	0.79156
0	H	0.592417	0.852262	0.146622
0	H	0.497831	0.232156	0.831523
0	C	0.513676	0.838369	0.269172
0	C	0.576773	0.246117	0.70898
0	C	0.551726	0.755896	0.308633
0	C	0.538759	0.328595	0.669505
0	C	0.586314	0.696805	0.27302
0	C	0.504141	0.387661	0.705129
0	C	0.641686	0.627549	0.308568
0	C	0.448792	0.456937	0.669581
0	H	0.673373	0.583181	0.27965
0	H	0.417041	0.501299	0.69852
0	C	0.65605	0.615354	0.37907
0	C	0.434524	0.469193	0.599018
0	C	0.715111	0.543083	0.412825
0	C	0.375583	0.541508	0.565222
0	C	0.684909	0.583177	0.530834
0	C	0.405582	0.501335	0.447303
0	C	0.627108	0.654827	0.494553
0	C	0.463403	0.42966	0.483584
0	C	0.585679	0.708022	0.533524
0	C	0.504753	0.376425	0.444642
0	H	0.597594	0.698883	0.589675
0	H	0.492808	0.385529	0.388527
0	C	0.52507	0.77328	0.502534
0	C	0.565336	0.311139	0.475655
0	H	0.492927	0.812946	0.53691
0	H	0.597399	0.271418	0.44133
0	C	0.505223	0.786037	0.433005
0	C	0.585253	0.298456	0.545143
0	C	0.435574	0.848947	0.402796
0	C	0.65492	0.235549	0.575364
0	C	0.401096	0.951954	0.282518
0	C	0.689444	0.132601	0.695655
0	C	0.449479	0.879124	0.318851
0	C	0.641003	0.205391	0.659311
0	C	0.556615	0.737222	0.386919
0	C	0.533903	0.347292	0.591213
0	C	0.613075	0.669433	0.420425
0	C	0.477468	0.415088	0.557697
0	C	0.312983	0.919726	0.568581
0	C	0.7774	0.164688	0.409674
0	H	0.231223	0.935719	0.573569
0	H	0.859142	0.14863	0.404695
0	H	0.367983	0.981021	0.527738
0	H	0.722349	0.103439	0.450538
0	C	0.323757	0.883857	0.652013
0	C	0.766636	0.200509	0.326235
0	H	0.308574	0.934141	0.676881
0	H	0.781803	0.150181	0.301414
0	H	0.406142	0.870812	0.646598
0	H	0.684241	0.213525	0.331648
0	C	0.248247	0.799428	0.708454
0	C	0.842118	0.284944	0.269704
0	H	0.165654	0.813866	0.723676
0	H	0.924723	0.270502	0.254466
0	H	0.262261	0.771556	0.766344
0	H	0.828041	0.31275	0.211867
0	C	0.262509	0.732078	0.671332
0	C	0.827888	0.352313	0.306813
0	H	0.336653	0.703405	0.673174
0	H	0.753672	0.380915	0.305037
0	H	0.198668	0.676432	0.707793
0	H	0.891664	0.408013	0.270272
0	C	0.263982	0.770255	0.584282
0	C	0.826575	0.314193	0.393804
0	H	0.288978	0.72116	0.557785
0	H	0.801705	0.363316	0.420291
0	H	0.183371	0.783173	0.58339
0	H	0.907202	0.301219	0.394629
0	C	0.457121	0.689684	0.20988
0	C	0.633286	0.39476	0.768312
0	H	0.407094	0.718969	0.249856
0	H	0.683297	0.365428	0.72836
0	H	0.430052	0.617933	0.239893
0	H	0.660381	0.466509	0.738245
0	C	0.44498	0.7295	0.127025
0	C	0.645449	0.355008	0.851172
0	H	0.461385	0.801618	0.102332
0	H	0.629112	0.282866	0.87584
0	H	0.361869	0.714321	0.13412
0	H	0.728507	0.370245	0.844064
0	C	0.519489	0.696328	0.0679122
0	C	0.570842	0.388111	0.910271
0	H	0.492936	0.627225	0.0846068
0	H	0.597379	0.457222	0.893626
0	H	0.516957	0.733047	0.00677542
0	H	0.573387	0.35138	0.971435
0	C	0.633342	0.706749	0.0655193
0	C	0.457039	0.377661	0.912659
0	H	0.685279	0.676948	0.0273016
0	H	0.405026	0.407408	0.950903
0	H	0.663915	0.777233	0.0371552
0	H	0.426511	0.307179	0.940973
0	C	0.640927	0.665335	0.149978
0	C	0.449468	0.419106	0.828215
0	H	0.618751	0.593269	0.176084
0	H	0.471645	0.49117	0.802099
0	H	0.723711	0.677493	0.146304
0	H	0.36668	0.406967	0.831852
0	C	0.244019	0.171608	0.173392
0	C	0.846464	0.912937	0.804849
0	H	0.300915	0.21564	0.113618
0	H	0.789495	0.868905	0.864582
0	H	0.223518	0.209328	0.211557
0	H	0.866939	0.875225	0.766656
0	C	0.144547	0.140409	0.164123
0	C	0.945945	0.944012	0.814161
0	H	0.165452	0.102296	0.126616
0	H	0.925059	0.982034	0.851774
0	H	0.0888464	0.0954853	0.22325
0	H	0.00164471	0.989014	0.755062
0	C	0.0909981	0.218807	0.125684
0	C	0.999467	0.86554	0.852496
0	H	0.144985	0.261323	0.0646708
0	H	0.945487	0.822959	0.913481
0	H	0.0755389	0.259944	0.160404
0	H	0.014875	0.824508	0.817686
0	C	0.987848	0.190485	0.120624
0	C	0.102653	0.89374	0.85759
0	H	0.999288	0.148183	0.0880541
0	H	0.0912611	0.93591	0.890287
0	H	0.953821	0.247391	0.0892652
0	H	0.136685	0.836763	0.888835
0	H	0.928724	0.154385	0.180124
0	H	0.161738	0.92993	0.79809
0	C	0.781237	0.455457	0.523404
0	C	0.309289	0.629057	0.454721
0	H	0.733325	0.419336	0.587936
0	H	0.357146	0.665194	0.390182
0	H	0.78494	0.409821	0.4932
0	H	0.305567	0.674694	0.48492
0	C	0.891831	0.489239	0.513275
0	C	0.198695	0.595201	0.464905
0	H	0.885833	0.529304	0.548377
0	H	0.204725	0.555057	0.429859
0	H	0.933554	0.533824	0.449381
0	H	0.157002	0.550676	0.528807
0	C	0.957337	0.4149	0.538587
0	C	0.133144	0.669457	0.439538
0	H	0.970856	0.380212	0.498348
0	H	0.119591	0.70426	0.479698
0	H	0.0363069	0.444538	0.529332
0	H	0.0541747	0.639752	0.448842
0	C	0.908444	0.349718	0.625874
0	C	0.181958	0.734543	0.352195
0	H	0.904122	0.381871	0.666636
0	H	0.18651	0.702232	0.311528
0	H	0.955814	0.295841	0.64014
0	H	0.134415	0.788256	0.337827
0	H	0.828688	0.320777	0.639162
0	H	0.261609	0.763702	0.338889
