#******************************************
#
# CIF file created by Zeo++
# Zeo++ is an open source package to
# analyze microporous materials
#
#*******************************************

_cell_length_a		11.5912(0)
_cell_length_b		13.0103(0)
_cell_length_c		17.7842(0)
_cell_angle_alpha		77.8433(0)
_cell_angle_beta		67.7932(0)
_cell_angle_gamma		53.6342(0)

_symmetry_space_group_name_H-M		'P1'
_symmetry_Int_Tables_number		1
_symmetry_cell_setting		Triclinic

loop_
_symmetry_equiv_pos_as_xyz
'+x,+y,+z'

loop_
_atom_site_label
_atom_site_type_symbol
_atom_site_fract_x
_atom_site_fract_y
_atom_site_fract_z
0	P	0.487722	0.762728	0.842348
0	P	0.0847035	0.941284	0.902894
0	P	0.431729	0.105922	0.376509
0	P	0.539715	0.798436	0.464833
0	S	0.514886	0.67278	0.756512
0	S	0.0892356	0.889782	0.805494
0	S	0.629078	0.0350295	0.291943
0	S	0.72288	0.704771	0.373694
0	C	0.419868	0.937386	0.828184
0	H	0.404561	0.97176	0.886255
0	C	0.122862	0.0685832	0.880099
0	H	0.0286115	0.153638	0.858216
0	C	0.442647	0.120388	0.476335
0	H	0.475963	0.189134	0.466922
0	C	0.54172	0.8885	0.53528
0	H	0.428889	0.934627	0.584395
0	C	0.270759	0.0233658	0.808875
0	H	0.263848	0.111706	0.781414
0	H	0.274755	0.98107	0.758571
0	C	0.572921	0.989533	0.494056
0	H	0.675448	0.947819	0.438627
0	H	0.610574	0.00882098	0.535487
0	C	0.359326	0.764716	0.946344
0	C	0.439677	0.724342	0.997698
0	C	0.604452	0.672668	0.959376
0	C	0.653316	0.686775	0.878346
0	C	0.205153	0.812275	0.963192
0	C	0.111593	0.786028	0.0232649
0	C	0.944615	0.883437	0.0373768
0	C	0.907361	0.983458	0.986734
0	C	0.331635	0.0268118	0.392495
0	C	0.233028	0.0975906	0.349813
0	C	0.20316	0.226931	0.324146
0	C	0.285267	0.255622	0.341241
0	C	0.357171	0.918919	0.442738
0	C	0.259743	0.886813	0.489456
0	C	0.325303	0.761582	0.532092
0	C	0.468315	0.703089	0.531761
0	C	0.546765	0.940665	0.760825
0	H	0.571198	0.905892	0.701269
0	H	0.654006	0.884331	0.774431
0	H	0.517614	0.0386482	0.751604
0	C	0.376511	0.731766	0.087859
0	H	0.25247	0.799136	0.109323
0	H	0.421822	0.763572	0.114843
0	H	0.402701	0.638499	0.114141
0	C	0.703293	0.60608	0.0115925
0	H	0.699323	0.673971	0.0420705
0	H	0.822628	0.538793	0.976011
0	H	0.671052	0.550014	0.0589693
0	C	0.805703	0.644785	0.825166
0	C	0.894824	0.661002	0.851309
0	H	0.844889	0.715519	0.906709
0	C	0.0469604	0.608188	0.806597
0	H	0.115073	0.619982	0.828234
0	C	0.111968	0.541025	0.73404
0	H	0.23148	0.497356	0.700272
0	C	0.0222017	0.531006	0.705265
0	H	0.0707557	0.48234	0.647539
0	C	0.87028	0.582262	0.750216
0	H	0.803898	0.570933	0.726486
0	C	0.116155	0.109087	0.956658
0	H	0.202482	0.0320069	0.98367
0	H	0.0052828	0.147449	0.00416532
0	H	0.134166	0.186061	0.943199
0	C	0.158559	0.672219	0.0756037
0	H	0.2822	0.606611	0.0609473
0	H	0.119501	0.616879	0.0679922
0	H	0.109661	0.697608	0.140739
0	C	0.835188	0.866726	0.106017
0	H	0.716518	0.945243	0.111851
0	H	0.847091	0.864193	0.165336
0	H	0.848389	0.777492	0.100526
0	C	0.762354	0.101351	0.987485
0	C	0.670881	0.179494	0.0579861
0	H	0.707338	0.149254	0.111549
0	C	0.532538	0.294773	0.0599688
0	H	0.462411	0.354206	0.114984
0	C	0.483602	0.333255	0.99211
0	H	0.375622	0.422811	0.993596
0	C	0.573988	0.255873	0.922033
0	H	0.536528	0.286011	0.868913
0	C	0.7123	0.140226	0.919514
0	H	0.779854	0.0800451	0.864672
0	C	0.29062	0.174893	0.542935
0	H	0.201583	0.270096	0.528945
0	H	0.298917	0.186255	0.599947
0	H	0.249235	0.11355	0.556954
0	C	0.154935	0.0574035	0.326317
0	H	0.0311376	0.124435	0.348606
0	H	0.183743	0.961858	0.348417
0	H	0.189007	0.0519488	0.259668
0	C	0.0828667	0.316919	0.28646
0	H	0.969347	0.351906	0.33069
0	H	0.0950739	0.273702	0.234822
0	H	0.0824599	0.402859	0.263678
0	C	0.277743	0.373389	0.329144
0	C	0.138122	0.487933	0.363105
0	H	0.0384443	0.487273	0.398558
0	C	0.125586	0.603238	0.350676
0	H	0.0157746	0.691548	0.375767
0	C	0.252205	0.605727	0.305197
0	H	0.242547	0.695479	0.296321
0	C	0.39106	0.492329	0.2715
0	H	0.489784	0.493938	0.235979
0	C	0.404401	0.376543	0.283057
0	H	0.513603	0.289089	0.255419
0	C	0.664772	0.787245	0.572309
0	H	0.779618	0.743017	0.528584
0	H	0.65144	0.709474	0.601644
0	H	0.660486	0.829578	0.621991
0	C	0.0929875	0.968839	0.506985
0	H	0.0337653	0.968848	0.572329
0	H	0.0562897	0.936299	0.474052
0	H	0.0504062	0.0690894	0.49121
0	C	0.234262	0.707318	0.570146
0	H	0.305795	0.602875	0.560642
0	H	0.141507	0.745833	0.546374
0	H	0.18408	0.724399	0.636594
0	C	0.556524	0.588404	0.573656
0	C	0.712236	0.497504	0.537924
0	H	0.772122	0.509367	0.476164
0	C	0.792789	0.390037	0.580953
0	H	0.913878	0.322136	0.553222
0	C	0.719394	0.369827	0.659358
0	H	0.782453	0.286106	0.692718
0	C	0.564343	0.459172	0.695331
0	H	0.50649	0.444706	0.756793
0	C	0.483452	0.567914	0.653231
0	H	0.362848	0.637992	0.682822
