#******************************************
#
# CIF file created by Zeo++
# Zeo++ is an open source package to
# analyze microporous materials
#
#*******************************************

_cell_length_a		30.7196(0)
_cell_length_b		25.7535(0)
_cell_length_c		6.87043(0)
_cell_angle_alpha		90(0)
_cell_angle_beta		90(0)
_cell_angle_gamma		90(0)

_symmetry_space_group_name_H-M		'P1'
_symmetry_Int_Tables_number		1
_symmetry_cell_setting		Monoclinic

loop_
_symmetry_equiv_pos_as_xyz
'+x,+y,+z'

loop_
_atom_site_label
_atom_site_type_symbol
_atom_site_fract_x
_atom_site_fract_y
_atom_site_fract_z
0	N	0.792256	0.429897	0.740092
0	N	0.199163	0.48735	0.73682
0	N	0.294841	0.00778329	0.741672
0	N	0.697021	0.909577	0.740943
0	N	0.793286	0.909759	0.2363
0	N	0.198314	0.00765686	0.237566
0	N	0.294014	0.487069	0.238092
0	N	0.697908	0.430572	0.237267
0	N	0.673952	0.343203	0.599651
0	N	0.317723	0.574363	0.601895
0	N	0.175967	0.0959008	0.625219
0	N	0.815555	0.821191	0.622316
0	N	0.674305	0.821685	0.124713
0	N	0.317397	0.0955735	0.125342
0	N	0.175428	0.574769	0.104923
0	N	0.816171	0.342367	0.104739
0	N	0.794165	0.0494068	0.761356
0	N	0.197164	0.867541	0.761762
0	N	0.301588	0.391292	0.762299
0	N	0.690042	0.526713	0.759906
0	N	0.798554	0.526604	0.260528
0	N	0.192824	0.391074	0.265363
0	N	0.297397	0.867694	0.259034
0	N	0.69427	0.0498055	0.2588
0	N	0.0347647	0.150433	0.650717
0	N	0.956711	0.766924	0.651372
0	N	0.533811	0.298404	0.662359
0	N	0.457598	0.619009	0.663081
0	N	0.0328645	0.619404	0.154664
0	N	0.958579	0.297914	0.157379
0	N	0.535822	0.767198	0.153637
0	N	0.455754	0.150269	0.155024
0	C	0.833861	0.210299	0.466504
0	C	0.15777	0.707325	0.469681
0	C	0.333786	0.230571	0.487569
0	C	0.657443	0.686938	0.485481
0	C	0.832229	0.686675	0.985983
0	C	0.159505	0.230933	0.990728
0	C	0.335354	0.7067	0.967345
0	C	0.65601	0.211075	0.965056
0	C	0.85996	0.174458	0.37916
0	C	0.131634	0.743003	0.381554
0	C	0.359339	0.266468	0.3975
0	C	0.631839	0.65107	0.39548
0	C	0.85777	0.65083	0.895392
0	C	0.133862	0.266693	0.900322
0	C	0.361448	0.742449	0.879577
0	C	0.629869	0.175265	0.877945
0	C	0.845288	0.142168	0.214993
0	C	0.146307	0.775174	0.217124
0	C	0.344897	0.298144	0.231596
0	C	0.646257	0.619492	0.229297
0	C	0.843075	0.619228	0.729517
0	C	0.148443	0.298349	0.734361
0	C	0.346989	0.774683	0.715067
0	C	0.644296	0.142957	0.713558
0	C	0.823382	0.164851	0.0569547
0	C	0.168519	0.75239	0.0601236
0	C	0.320694	0.27629	0.0788452
0	C	0.670386	0.641518	0.076615
0	C	0.81884	0.641334	0.577187
0	C	0.172657	0.276295	0.58189
0	C	0.324551	0.752172	0.558167
0	C	0.666521	0.165467	0.556023
0	C	0.808672	0.135183	0.9015
0	C	0.183136	0.781893	0.904061
0	C	0.307885	0.305686	0.919053
0	C	0.683311	0.612233	0.916754
0	C	0.805671	0.612155	0.417498
0	C	0.185753	0.30551	0.422141
0	C	0.310254	0.781849	0.402061
0	C	0.680936	0.135711	0.400362
0	C	0.81489	0.0804902	0.900269
0	C	0.176535	0.836514	0.901186
0	C	0.318813	0.359175	0.907396
0	C	0.672606	0.558679	0.904995
0	C	0.816202	0.558544	0.405236
0	C	0.175143	0.359102	0.409941
0	C	0.317525	0.836361	0.399032
0	C	0.673986	0.0811407	0.398378
0	C	0.839022	0.0579813	0.0562087
0	C	0.152094	0.859088	0.0560392
0	C	0.344855	0.380754	0.0590511
0	C	0.646597	0.536941	0.0563713
0	C	0.842203	0.536681	0.556406
0	C	0.149067	0.380872	0.561024
0	C	0.342151	0.858641	0.553756
0	C	0.649534	0.0588509	0.553594
0	C	0.853954	0.0883827	0.208341
0	C	0.137255	0.828849	0.208798
0	C	0.357286	0.350847	0.216487
0	C	0.634016	0.566748	0.213861
0	C	0.855046	0.566409	0.713778
0	C	0.136332	0.351126	0.718546
0	C	0.356622	0.828222	0.70675
0	C	0.63494	0.0893442	0.706204
0	C	0.905284	0.16639	0.445163
0	C	0.0862684	0.750975	0.446977
0	C	0.404583	0.275752	0.463053
0	C	0.586646	0.64173	0.46154
0	C	0.903137	0.641651	0.959622
0	C	0.0884584	0.275666	0.964397
0	C	0.406718	0.750629	0.945939
0	C	0.584655	0.167064	0.944961
0	C	0.913352	0.146596	0.63218
0	C	0.0781124	0.770933	0.633716
0	C	0.412371	0.296322	0.64908
0	C	0.579008	0.621164	0.647707
0	C	0.911338	0.620874	0.145063
0	C	0.0801149	0.296408	0.149775
0	C	0.414495	0.770755	0.132706
0	C	0.577051	0.147038	0.132045
0	C	0.955664	0.139081	0.697821
0	C	0.0357738	0.778441	0.698908
0	C	0.454568	0.305998	0.712558
0	C	0.536875	0.611456	0.711864
0	C	0.953668	0.611284	0.206882
0	C	0.0377296	0.30593	0.210946
0	C	0.456741	0.778464	0.199047
0	C	0.534873	0.139253	0.199079
0	C	0.991536	0.151946	0.577553
0	C	0.999954	0.765409	0.578543
0	C	0.490539	0.294441	0.590966
0	C	0.500797	0.622978	0.590866
0	C	0.989433	0.623164	0.0846512
0	C	0.00206691	0.294047	0.0881442
0	C	0.492713	0.765453	0.079606
0	C	0.498784	0.152091	0.0801199
0	C	0.983197	0.171779	0.388832
0	C	0.00838494	0.745394	0.390164
0	C	0.482431	0.273591	0.403664
0	C	0.50875	0.643803	0.403378
0	C	0.980965	0.644154	0.897882
0	C	0.0106767	0.272962	0.901669
0	C	0.484607	0.745289	0.891064
0	C	0.506708	0.172158	0.891269
0	C	0.940689	0.178713	0.324326
0	C	0.0509227	0.738466	0.326065
0	C	0.440037	0.264692	0.341081
0	C	0.551088	0.652733	0.340101
0	C	0.938437	0.652973	0.836897
0	C	0.0532563	0.264186	0.841333
0	C	0.442169	0.738218	0.82581
0	C	0.549087	0.179302	0.825306
0	C	0.850869	0.248219	0.615629
0	C	0.140677	0.669266	0.618087
0	C	0.351612	0.193234	0.636884
0	C	0.639689	0.72425	0.635043
0	C	0.850058	0.724067	0.13518
0	C	0.141821	0.193448	0.139916
0	C	0.352547	0.668802	0.116172
0	C	0.638933	0.24909	0.113745
0	C	0.831179	0.302621	0.589933
0	C	0.160519	0.614972	0.592092
0	C	0.332583	0.138417	0.613397
0	C	0.658855	0.779022	0.612225
0	C	0.830922	0.778841	0.111795
0	C	0.160823	0.138665	0.114812
0	C	0.332712	0.614457	0.0912525
0	C	0.658768	0.303403	0.087698
0	C	0.78263	0.301915	0.566677
0	C	0.209083	0.615852	0.569738
0	C	0.284025	0.138166	0.591065
0	C	0.707405	0.779166	0.589401
0	C	0.78235	0.77906	0.0896971
0	C	0.209383	0.138398	0.0920744
0	C	0.284149	0.615316	0.0689433
0	C	0.707335	0.302416	0.0659749
0	C	0.763177	0.255836	0.481428
0	C	0.228594	0.662187	0.48684
0	C	0.26365	0.184236	0.510083
0	C	0.727664	0.733089	0.507906
0	C	0.762004	0.732855	0.00956446
0	C	0.229719	0.184664	0.0123383
0	C	0.264625	0.66144	0.984381
0	C	0.726768	0.256333	0.980735
0	C	0.787339	0.214232	0.428174
0	C	0.204371	0.703717	0.433075
0	C	0.287156	0.226122	0.454096
0	C	0.704065	0.691301	0.451708
0	C	0.785548	0.691012	0.953304
0	C	0.206169	0.226615	0.957332
0	C	0.288807	0.702918	0.930023
0	C	0.702529	0.214853	0.926836
0	C	0.757948	0.344448	0.616638
0	C	0.23375	0.573129	0.618154
0	C	0.260002	0.0947469	0.637566
0	C	0.731524	0.822496	0.635935
0	C	0.758369	0.822524	0.135535
0	C	0.233333	0.0948413	0.137057
0	C	0.259413	0.572778	0.118984
0	C	0.732187	0.344774	0.117325
0	C	0.776693	0.391692	0.684867
0	C	0.214893	0.525717	0.683868
0	C	0.279276	0.0469007	0.696292
0	C	0.7124	0.870376	0.695221
0	C	0.777702	0.870467	0.192612
0	C	0.213958	0.0469017	0.193917
0	C	0.278259	0.525381	0.185055
0	C	0.713478	0.392183	0.183933
0	C	0.711676	0.344053	0.605841
0	C	0.280025	0.573527	0.607779
0	C	0.213669	0.0948652	0.629351
0	C	0.777857	0.822285	0.627035
0	C	0.712028	0.822548	0.128074
0	C	0.279667	0.0947574	0.129066
0	C	0.213123	0.573508	0.109792
0	C	0.778477	0.343801	0.108942
0	C	0.77699	0.0742315	0.582179
0	C	0.214551	0.842555	0.583349
0	C	0.279055	0.367347	0.593978
0	C	0.712296	0.550847	0.591225
0	C	0.775982	0.550645	0.0925259
0	C	0.215427	0.367008	0.0974677
0	C	0.279689	0.842768	0.081229
0	C	0.711722	0.0746652	0.0803226
0	C	0.809132	0.995162	0.7319
0	C	0.18181	0.921571	0.730772
0	C	0.325237	0.439861	0.71312
0	C	0.666835	0.477802	0.711416
0	C	0.821679	0.47773	0.210381
0	C	0.16971	0.439941	0.21504
0	C	0.313742	0.921259	0.226703
0	C	0.678248	0.996053	0.227698
0	C	0.0703334	0.143948	0.505562
0	C	0.921156	0.773087	0.505967
0	C	0.569086	0.303657	0.515153
0	C	0.422155	0.613878	0.516649
0	C	0.0679113	0.61387	0.00649492
0	C	0.923652	0.303175	0.00850439
0	C	0.571475	0.773144	0.00873747
0	C	0.419918	0.144501	0.0109394
0	C	0.0427112	0.118811	0.828561
0	C	0.94862	0.798645	0.828822
0	C	0.541199	0.333356	0.831859
0	C	0.450366	0.583975	0.832474
0	C	0.0405383	0.584734	0.324746
0	C	0.950759	0.33288	0.326464
0	C	0.543642	0.799422	0.330117
0	C	0.448121	0.117829	0.331127
0	H	0.818267	0.206826	0.0553802
0	H	0.173939	0.710453	0.0598364
0	H	0.312323	0.235051	0.0837041
0	H	0.678606	0.682797	0.0816908
0	H	0.810706	0.682637	0.582637
0	H	0.180832	0.235008	0.587251
0	H	0.318723	0.710325	0.557927
0	H	0.67209	0.207357	0.55504
0	H	0.792605	0.154289	0.780241
0	H	0.199418	0.762699	0.783528
0	H	0.289958	0.287147	0.801668
0	H	0.701167	0.6309	0.799421
0	H	0.787718	0.630965	0.300719
0	H	0.203706	0.28673	0.305311
0	H	0.293738	0.762866	0.281653
0	H	0.697304	0.154679	0.27952
0	H	0.845192	0.016297	0.058039
0	H	0.145595	0.900684	0.0565237
0	H	0.353913	0.421614	0.0545632
0	H	0.637671	0.496042	0.0517453
0	H	0.850867	0.495694	0.551557
0	H	0.14026	0.421818	0.556038
0	H	0.349082	0.900132	0.553944
0	H	0.642828	0.0173111	0.554571
0	H	0.872415	0.0704614	0.326663
0	H	0.118556	0.846808	0.326251
0	H	0.376797	0.368226	0.332403
0	H	0.614511	0.549257	0.329545
0	H	0.874532	0.548719	0.829165
0	H	0.116809	0.368749	0.833937
0	H	0.375503	0.845904	0.824194
0	H	0.616187	0.0716596	0.824032
0	H	0.88601	0.136847	0.727373
0	H	0.10541	0.780804	0.729002
0	H	0.384954	0.305077	0.745078
0	H	0.606502	0.612442	0.743325
0	H	0.884102	0.611906	0.241979
0	H	0.107272	0.305398	0.247113
0	H	0.387042	0.780592	0.22704
0	H	0.604589	0.137335	0.226067
0	H	0.960771	0.123675	0.843536
0	H	0.0305757	0.793967	0.844416
0	H	0.459528	0.321872	0.857664
0	H	0.532043	0.595587	0.857063
0	H	0.958868	0.595135	0.351436
0	H	0.0323858	0.322024	0.355527
0	H	0.461699	0.794107	0.34443
0	H	0.530054	0.123689	0.344687
0	H	0.0099632	0.183169	0.294087
0	H	0.981664	0.733891	0.295371
0	H	0.50933	0.263175	0.307926
0	H	0.481762	0.654163	0.308059
0	H	0.00767254	0.654744	0.801434
0	H	0.984049	0.2623	0.804895
0	H	0.511473	0.73382	0.796942
0	H	0.479748	0.183488	0.797454
0	H	0.934833	0.194686	0.17927
0	H	0.0568425	0.722351	0.181286
0	H	0.434351	0.248348	0.196423
0	H	0.55665	0.669067	0.195315
0	H	0.932483	0.669505	0.692813
0	H	0.0593253	0.247576	0.697456
0	H	0.436455	0.722094	0.680881
0	H	0.554656	0.195349	0.680132
0	H	0.843606	0.233301	0.763776
0	H	0.147753	0.684098	0.766542
0	H	0.344452	0.208339	0.784938
0	H	0.646762	0.709018	0.782979
0	H	0.842936	0.708935	0.283242
0	H	0.149211	0.208366	0.288031
0	H	0.345591	0.683827	0.264457
0	H	0.64602	0.234207	0.262108
0	H	0.88692	0.25121	0.607168
0	H	0.104644	0.666179	0.608831
0	H	0.387691	0.190939	0.627085
0	H	0.60362	0.726683	0.625066
0	H	0.886126	0.726456	0.125188
0	H	0.10573	0.19117	0.131081
0	H	0.388597	0.665721	0.106444
0	H	0.602876	0.252153	0.104592
0	H	0.841382	0.327502	0.714226
0	H	0.15028	0.589952	0.715921
0	H	0.343107	0.113978	0.738501
0	H	0.648457	0.803348	0.737841
0	H	0.84142	0.80325	0.236998
0	H	0.150348	0.114033	0.239424
0	H	0.342978	0.589647	0.215645
0	H	0.648421	0.328444	0.211241
0	H	0.845438	0.321312	0.457544
0	H	0.146434	0.596329	0.459238
0	H	0.347068	0.119559	0.481774
0	H	0.644354	0.798086	0.481051
0	H	0.845317	0.797815	0.980195
0	H	0.146313	0.11999	0.982863
0	H	0.34684	0.59562	0.958792
0	H	0.644728	0.321963	0.954508
0	H	0.728095	0.256095	0.455917
0	H	0.263752	0.662223	0.463471
0	H	0.228394	0.183718	0.489473
0	H	0.762919	0.733521	0.487068
0	H	0.726732	0.733263	0.989657
0	H	0.264974	0.184213	0.991745
0	H	0.229506	0.661306	0.960037
0	H	0.761859	0.256482	0.955526
0	H	0.771709	0.180929	0.356782
0	H	0.220017	0.737208	0.362914
0	H	0.270871	0.259342	0.385039
0	H	0.720278	0.658083	0.382273
0	H	0.769231	0.657748	0.884733
0	H	0.222449	0.259961	0.889129
0	H	0.273174	0.736241	0.858709
0	H	0.71809	0.181526	0.855174
0	H	0.764927	0.0446197	0.478585
0	H	0.226963	0.872095	0.480224
0	H	0.266954	0.397831	0.493626
0	H	0.724716	0.520448	0.491276
0	H	0.763155	0.520108	0.994124
0	H	0.227907	0.39748	0.997933
0	H	0.267963	0.872385	0.976802
0	H	0.723233	0.0450215	0.97553
0	H	0.801386	0.0979629	0.505102
0	H	0.190165	0.819002	0.505354
0	H	0.300058	0.341088	0.508589
0	H	0.690977	0.576678	0.50555
0	H	0.79721	0.576121	0.0048733
0	H	0.194333	0.341101	0.0109695
0	H	0.303672	0.818302	0.00459432
0	H	0.687655	0.0991742	0.00445216
0	H	0.748698	0.0987964	0.619289
0	H	0.242649	0.817777	0.621441
0	H	0.250019	0.345923	0.644668
0	H	0.741089	0.572796	0.641512
0	H	0.747394	0.572814	0.143601
0	H	0.244248	0.345281	0.148652
0	H	0.251076	0.818884	0.119808
0	H	0.740431	0.0984905	0.118012
0	H	0.785774	0.974381	0.637268
0	H	0.204636	0.942212	0.633145
0	H	0.307266	0.461532	0.599926
0	H	0.684716	0.456524	0.596889
0	H	0.803178	0.456263	0.0982376
0	H	0.188273	0.461434	0.103162
0	H	0.291258	0.942344	0.128737
0	H	0.700653	0.975123	0.128905
0	H	0.809922	0.974253	0.872456
0	H	0.18153	0.942907	0.870417
0	H	0.327353	0.465071	0.842602
0	H	0.665406	0.452445	0.840667
0	H	0.823972	0.452482	0.339608
0	H	0.167334	0.465151	0.344376
0	H	0.314514	0.942828	0.365754
0	H	0.677957	0.974574	0.367008
0	H	0.841475	0.99269	0.66309
0	H	0.149158	0.923572	0.664798
0	H	0.358306	0.432733	0.657148
0	H	0.633522	0.484404	0.657485
0	H	0.854628	0.484449	0.152257
0	H	0.136792	0.433233	0.156545
0	H	0.346399	0.922263	0.16043
0	H	0.645445	0.99465	0.162956
0	H	0.102228	0.145486	0.580157
0	H	0.889246	0.7717	0.580449
0	H	0.600973	0.299437	0.588121
0	H	0.390378	0.618541	0.590206
0	H	0.0999754	0.617017	0.0786675
0	H	0.891526	0.300294	0.0802572
0	H	0.603281	0.770791	0.0834475
0	H	0.388213	0.147246	0.0863243
0	H	0.0694105	0.176396	0.400508
0	H	0.922111	0.740411	0.40194
0	H	0.566613	0.272192	0.406597
0	H	0.424735	0.645116	0.407226
0	H	0.065805	0.645842	0.899851
0	H	0.92578	0.270933	0.903014
0	H	0.570087	0.740907	0.902926
0	H	0.421392	0.176585	0.904495
0	H	0.0687265	0.10696	0.425369
0	H	0.922777	0.809895	0.424624
0	H	0.568943	0.341267	0.438959
0	H	0.421953	0.576133	0.441403
0	H	0.0670463	0.576586	0.928163
0	H	0.924653	0.34026	0.928865
0	H	0.570421	0.81028	0.929429
0	H	0.420629	0.107248	0.932298
0	H	0.0398369	0.076682	0.804181
0	H	0.950908	0.840787	0.803496
0	H	0.536591	0.374773	0.797808
0	H	0.455144	0.542592	0.798297
0	H	0.0357158	0.543261	0.292184
0	H	0.95504	0.374343	0.29222
0	H	0.540448	0.841433	0.304065
0	H	0.451222	0.0758451	0.304183
0	H	0.0196795	0.130331	0.944192
0	H	0.971962	0.787749	0.944057
0	H	0.518986	0.32267	0.951767
0	H	0.472547	0.594769	0.952364
0	H	0.018624	0.595787	0.445261
0	H	0.972972	0.322545	0.446792
0	H	0.520743	0.788032	0.44638
0	H	0.471185	0.129002	0.447048
0	H	0.0758231	0.127054	0.882832
0	H	0.915697	0.789836	0.88414
0	H	0.574743	0.327866	0.885374
0	H	0.416806	0.58924	0.88608
0	H	0.0742065	0.590195	0.376779
0	H	0.917229	0.326967	0.379581
0	H	0.576839	0.791694	0.384407
0	H	0.415006	0.125543	0.386419
