#******************************************
#
# CIF file created by Zeo++
# Zeo++ is an open source package to
# analyze microporous materials
#
#*******************************************

_cell_length_a		14.6445(0)
_cell_length_b		10.0663(0)
_cell_length_c		18.463(0)
_cell_angle_alpha		90(0)
_cell_angle_beta		91.3358(0)
_cell_angle_gamma		90(0)

_symmetry_space_group_name_H-M		'P1'
_symmetry_Int_Tables_number		1
_symmetry_cell_setting		Monoclinic

loop_
_symmetry_equiv_pos_as_xyz
'+x,+y,+z'

loop_
_atom_site_label
_atom_site_type_symbol
_atom_site_fract_x
_atom_site_fract_y
_atom_site_fract_z
0	C	0.13348	0.6391	0.904281
0	C	0.907988	0.139357	0.600671
0	C	0.899319	0.436816	0.100331
0	C	0.125091	0.936155	0.403199
0	H	0.119602	0.745323	0.888453
0	H	0.922021	0.245171	0.617172
0	H	0.913162	0.330593	0.116181
0	H	0.111244	0.830338	0.386656
0	C	0.0593956	0.548711	0.911107
0	C	0.981803	0.0485466	0.593496
0	C	0.973442	0.527107	0.093397
0	C	0.0510396	0.0264468	0.410765
0	C	0.967871	0.590856	0.895017
0	C	0.0734427	0.0902327	0.609572
0	C	0.0649976	0.484871	0.109271
0	C	0.959475	0.984429	0.394677
0	H	0.956211	0.691527	0.874576
0	H	0.0853308	0.190737	0.630172
0	H	0.0766894	0.384089	0.129538
0	H	0.947826	0.883981	0.3739
0	C	0.896685	0.504235	0.904284
0	C	0.144469	0.00341122	0.600162
0	C	0.136183	0.571462	0.099891
0	C	0.88821	0.0707432	0.404291
0	H	0.826043	0.534103	0.8923
0	H	0.215163	0.033447	0.612143
0	H	0.206838	0.54148	0.111737
0	H	0.817595	0.0404405	0.392213
0	C	0.913841	0.372854	0.929632
0	C	0.126978	0.872119	0.574836
0	C	0.119004	0.702838	0.0745468
0	C	0.905364	0.201886	0.430028
0	H	0.856404	0.305191	0.938122
0	H	0.184102	0.803803	0.566647
0	H	0.176387	0.77053	0.0659226
0	H	0.848029	0.269727	0.438464
0	C	0.00139	0.329829	0.944345
0	C	0.0392966	0.829644	0.559997
0	C	0.0314321	0.745887	0.0599896
0	C	0.992956	0.244634	0.445002
0	H	0.0127374	0.227707	0.963569
0	H	0.0277768	0.727459	0.540786
0	H	0.0200225	0.847919	0.0406865
0	H	0.00429394	0.34654	0.464644
0	C	0.0771772	0.416541	0.934824
0	C	0.963632	0.916622	0.569469
0	C	0.955659	0.659253	0.069664
0	C	0.0688745	0.158265	0.435108
0	C	0.170885	0.377448	0.948311
0	C	0.869772	0.878244	0.555812
0	C	0.861975	0.698452	0.0562324
0	C	0.162671	0.197133	0.448617
0	C	0.23966	0.469355	0.939757
0	C	0.801422	0.970869	0.56419
0	C	0.793177	0.606621	0.0648581
0	C	0.231291	0.105099	0.439682
0	H	0.312059	0.444263	0.949121
0	H	0.728978	0.946474	0.554287
0	H	0.720796	0.631841	0.055538
0	H	0.303712	0.13	0.449347
0	C	0.191144	0.235428	0.972239
0	C	0.847958	0.736378	0.532266
0	C	0.84178	0.840471	0.0322683
0	C	0.184118	0.338904	0.472531
0	H	0.142789	0.212876	0.0178326
0	H	0.895656	0.712637	0.486446
0	H	0.890168	0.86299	0.98669
0	H	0.136466	0.361975	0.518471
0	C	0.287212	0.222346	0.00438558
0	C	0.751396	0.724221	0.500709
0	C	0.745748	0.853472	5.06387e-05
0	C	0.280697	0.351366	0.503994
0	C	0.361089	0.183244	0.962473
0	C	0.677031	0.688524	0.542999
0	C	0.671772	0.89236	0.0419185
0	C	0.354882	0.387428	0.461614
0	H	0.34983	0.158909	0.905331
0	H	0.688056	0.666987	0.600483
0	H	0.682955	0.916729	0.099063
0	H	0.343674	0.409111	0.404166
0	C	0.448884	0.174341	0.993581
0	C	0.589147	0.679419	0.511933
0	C	0.584	0.901005	0.0107617
0	C	0.442836	0.396653	0.492544
0	H	0.506897	0.144021	0.961096
0	H	0.530954	0.651071	0.54472
0	H	0.525898	0.931124	0.0432046
0	H	0.500886	0.425223	0.459674
0	C	0.460744	0.204286	0.0668974
0	C	0.577228	0.706741	0.438315
0	C	0.572248	0.871108	0.937432
0	C	0.454995	0.369012	0.56611
0	C	0.38837	0.242515	0.110182
0	C	0.65004	0.741337	0.394611
0	C	0.6447	0.83308	0.894184
0	C	0.382333	0.334059	0.609891
0	H	0.399545	0.265836	0.167306
0	H	0.639277	0.762315	0.33717
0	H	0.63362	0.809757	0.837066
0	H	0.393298	0.312843	0.667288
0	C	0.301196	0.251094	0.0783778
0	C	0.737283	0.749756	0.426375
0	C	0.731859	0.824669	0.926045
0	C	0.295014	0.325557	0.578286
0	H	0.243976	0.280309	0.111653
0	H	0.794544	0.776464	0.39256
0	H	0.789124	0.795747	0.892773
0	H	0.23787	0.298616	0.612161
0	C	0.168369	0.138098	0.912974
0	C	0.870962	0.639595	0.591774
0	C	0.86457	0.937773	0.0915623
0	C	0.160785	0.435993	0.413249
0	C	0.150475	0.00620309	0.933936
0	C	0.885365	0.506236	0.572041
0	C	0.882821	0.0695401	0.070571
0	C	0.144871	0.568674	0.433582
0	C	0.064651	0.980108	0.81666
0	C	0.97878	0.483281	0.685882
0	C	0.967963	0.0958154	0.188137
0	C	0.0538397	0.592672	0.318643
0	C	0.973212	0.0374855	0.837568
0	C	0.0693615	0.537157	0.660623
0	C	0.0595168	0.0383813	0.167552
0	C	0.962989	0.537408	0.342493
0	H	0.945559	0.102134	0.794556
0	H	0.0978565	0.608931	0.699745
0	H	0.0870411	0.973969	0.2107
0	H	0.933878	0.47008	0.301338
0	H	0.977931	0.0967403	0.887607
0	H	0.0632816	0.588107	0.607911
0	H	0.0549597	0.978853	0.117593
0	H	0.969073	0.481302	0.393574
0	H	0.92254	0.959282	0.84664
0	H	0.120238	0.458152	0.654573
0	H	0.110173	0.116568	0.158413
0	H	0.912713	0.616361	0.351076
0	C	0.0609105	0.870997	0.760277
0	C	0.984316	0.376715	0.743663
0	C	0.971516	0.205015	0.244494
0	C	0.0487509	0.69997	0.261242
0	H	0.0402937	0.91144	0.707071
0	H	0.00762359	0.419263	0.795736
0	H	0.992676	0.164829	0.297631
0	H	0.0282863	0.657361	0.208487
0	H	0.00970633	0.794369	0.772517
0	H	0.0339344	0.298312	0.731009
0	H	0.0221879	0.282208	0.23196
0	H	0.997229	0.77631	0.272941
0	H	0.127511	0.823055	0.754339
0	H	0.9175	0.330881	0.752242
0	H	0.904713	0.252213	0.250705
0	H	0.115088	0.748335	0.25446
0	C	0.165157	0.17498	0.838782
0	C	0.878871	0.679254	0.665445
0	C	0.867502	0.900947	0.165753
0	C	0.154399	0.397451	0.339361
0	C	0.295518	0.698503	0.911131
0	C	0.745905	0.199746	0.593423
0	C	0.737268	0.377516	0.0935324
0	C	0.287363	0.87691	0.409608
0	H	0.360026	0.660178	0.937683
0	H	0.682257	0.164529	0.56448
0	H	0.672732	0.415854	0.0670243
0	H	0.351376	0.913191	0.437782
0	H	0.278686	0.790312	0.943518
0	H	0.765051	0.293851	0.563583
0	H	0.754044	0.28576	0.0610967
0	H	0.269341	0.783016	0.43984
0	C	0.310454	0.731168	0.832414
0	C	0.72801	0.227008	0.672272
0	C	0.722332	0.344629	0.172229
0	C	0.304389	0.849064	0.330653
0	C	0.333562	0.63087	0.783144
0	C	0.710488	0.122329	0.720325
0	C	0.698961	0.444709	0.221553
0	C	0.321686	0.953232	0.28222
0	H	0.337382	0.527184	0.800642
0	H	0.711029	0.0192316	0.701523
0	H	0.69505	0.548427	0.204132
0	H	0.321053	0.0564814	0.30074
0	C	0.351227	0.66285	0.711397
0	C	0.693143	0.148885	0.792815
0	C	0.681064	0.412369	0.293212
0	C	0.338969	0.926036	0.209783
0	H	0.369703	0.585487	0.67242
0	H	0.679138	0.0678886	0.830867
0	H	0.662313	0.48945	0.332267
0	H	0.352803	0.00664626	0.171438
0	C	0.345102	0.796147	0.688954
0	C	0.694175	0.281173	0.817221
0	C	0.687293	0.278985	0.31551
0	C	0.338131	0.793471	0.185886
0	C	0.31933	0.896631	0.737144
0	C	0.712525	0.38648	0.769805
0	C	0.713358	0.17877	0.267298
0	C	0.31968	0.688645	0.233589
0	H	0.312714	0.999809	0.718683
0	H	0.714182	0.489031	0.789725
0	H	0.720009	0.075489	0.285646
0	H	0.317971	0.585874	0.213966
0	C	0.302089	0.863282	0.808905
0	C	0.729066	0.358767	0.697238
0	C	0.730844	0.21246	0.195623
0	C	0.303152	0.717082	0.306072
0	H	0.280864	0.941218	0.846473
0	H	0.744312	0.440583	0.660213
0	H	0.752306	0.134688	0.158039
0	H	0.287772	0.635677	0.343324
0	Cl	0.568964	0.194101	0.106804
0	Cl	0.468575	0.698339	0.398691
0	Cl	0.46405	0.881109	0.897494
0	Cl	0.563726	0.377441	0.605527
0	N	0.366172	0.829999	0.613605
0	N	0.67592	0.308862	0.893878
0	N	0.665863	0.244742	0.390754
0	N	0.356673	0.76474	0.109401
0	N	0.219889	0.60014	0.918506
0	N	0.821522	0.101238	0.585898
0	N	0.812913	0.475837	0.086144
0	N	0.211529	0.974797	0.417681
0	O	0.110312	0.922614	0.879569
0	O	0.928592	0.42413	0.625596
0	O	0.922619	0.153239	0.125091
0	O	0.102482	0.651342	0.379822
0	O	0.123331	0.0826443	0.789796
0	O	0.923308	0.588651	0.713815
0	O	0.909171	0.993284	0.214846
0	O	0.110368	0.488354	0.290917
0	O	0.19468	0.271532	0.807149
0	O	0.851993	0.777668	0.696952
0	O	0.837943	0.804345	0.197314
0	O	0.182253	0.299775	0.307737
0	O	0.165905	0.943569	0.989577
0	O	0.865033	0.44111	0.51811
0	O	0.86804	0.13193	0.0147666
0	O	0.16314	0.632617	0.488323
0	O	0.402571	0.746113	0.576286
0	O	0.640676	0.222307	0.929994
0	O	0.628566	0.328034	0.427892
0	O	0.391793	0.850859	0.0728758
0	O	0.345786	0.941289	0.591349
0	O	0.697382	0.418381	0.918211
0	O	0.686806	0.133685	0.413057
0	O	0.335568	0.654711	0.0855793
