#******************************************
#
# CIF file created by Zeo++
# Zeo++ is an open source package to
# analyze microporous materials
#
#*******************************************

_cell_length_a		20.4748(0)
_cell_length_b		18.6788(0)
_cell_length_c		8.29327(0)
_cell_angle_alpha		90(0)
_cell_angle_beta		90(0)
_cell_angle_gamma		90(0)

_symmetry_space_group_name_H-M		'P1'
_symmetry_Int_Tables_number		1
_symmetry_cell_setting		Monoclinic

loop_
_symmetry_equiv_pos_as_xyz
'+x,+y,+z'

loop_
_atom_site_label
_atom_site_type_symbol
_atom_site_fract_x
_atom_site_fract_y
_atom_site_fract_z
0	O	0.00162752	0.483173	0.0679165
0	O	0.514838	0.52495	0.559565
0	O	0.0100653	0.984939	0.440482
0	O	0.498621	0.0227135	0.948559
0	C	0.929817	0.475592	0.0656373
0	C	0.586087	0.533263	0.563489
0	C	0.0818704	0.976725	0.443758
0	C	0.427157	0.0310917	0.94632
0	C	0.904201	0.548667	0.132245
0	C	0.611688	0.46008	0.632357
0	C	0.107478	0.0495408	0.375668
0	C	0.400807	0.95843	0.87797
0	O	0.936535	0.568236	0.277134
0	O	0.577855	0.440952	0.775404
0	O	0.07558	0.0676625	0.228914
0	O	0.433489	0.93995	0.732713
0	C	0.830046	0.544095	0.160952
0	C	0.685596	0.465102	0.662361
0	C	0.181624	0.0448542	0.348214
0	C	0.326674	0.963823	0.851526
0	C	0.810602	0.484908	0.278263
0	C	0.704686	0.525279	0.776673
0	C	0.200725	0.986272	0.227844
0	C	0.307384	0.023737	0.736095
0	C	0.84864	0.417771	0.250508
0	C	0.66568	0.591571	0.75014
0	C	0.162535	0.919135	0.256452
0	C	0.346408	0.0898261	0.762782
0	O	0.824837	0.363283	0.333681
0	O	0.688454	0.646662	0.834539
0	O	0.185788	0.864894	0.171713
0	O	0.32318	0.145163	0.680347
0	C	0.905299	0.413505	0.156957
0	C	0.608616	0.595227	0.664381
0	C	0.106122	0.914987	0.351161
0	C	0.404087	0.0932048	0.849074
0	C	0.942412	0.348024	0.156443
0	C	0.569632	0.659859	0.659106
0	C	0.0685979	0.849766	0.350324
0	C	0.442848	0.157868	0.852945
0	O	0.919984	0.28971	0.206066
0	O	0.591684	0.718179	0.710497
0	O	0.0908506	0.79153	0.299875
0	O	0.420675	0.216228	0.802907
0	C	0.0105758	0.353818	0.106107
0	C	0.502051	0.653294	0.608849
0	C	0.000594423	0.855836	0.40056
0	C	0.510479	0.15128	0.9027
0	C	0.0515833	0.293055	0.105722
0	C	0.458933	0.712764	0.610349
0	C	0.95936	0.795253	0.401191
0	C	0.553369	0.210872	0.902452
0	O	0.0288925	0.227088	0.132886
0	O	0.480787	0.779167	0.640163
0	O	0.981817	0.729227	0.373238
0	O	0.531307	0.277318	0.874249
0	C	0.119944	0.29977	0.0786808
0	C	0.390777	0.705178	0.581581
0	C	0.891108	0.802186	0.429321
0	C	0.621512	0.20323	0.930695
0	C	0.145909	0.367815	0.0491386
0	C	0.365804	0.636831	0.550567
0	C	0.865252	0.870211	0.45892
0	C	0.646694	0.134933	0.961323
0	C	0.104942	0.428985	0.0476751
0	C	0.408968	0.57676	0.547282
0	C	0.90643	0.931236	0.45994
0	C	0.603798	0.0747854	0.964008
0	C	0.0377367	0.421533	0.0725776
0	C	0.476176	0.585076	0.570523
0	C	0.973582	0.923606	0.434911
0	C	0.536716	0.083106	0.939809
0	C	0.911506	0.469581	0.883336
0	C	0.606006	0.538806	0.382538
0	C	0.0998939	0.970443	0.625933
0	C	0.406938	0.0372092	0.127055
0	O	0.879985	0.5132	0.807931
0	O	0.637077	0.494593	0.307998
0	O	0.132302	0.0132218	0.701465
0	O	0.373972	0.994448	0.200705
0	C	0.216215	0.383985	0.0160942
0	C	0.295324	0.620298	0.517968
0	C	0.794992	0.886551	0.492551
0	C	0.717016	0.118061	0.994035
0	O	0.936574	0.409231	0.817044
0	O	0.581522	0.599222	0.314144
0	O	0.0736849	0.910878	0.693455
0	O	0.432542	0.0969452	0.196065
0	C	0.921204	0.39396	0.648739
0	C	0.596175	0.612667	0.144786
0	C	0.089085	0.896249	0.862203
0	C	0.416295	0.110993	0.364252
0	C	0.328793	0.360319	0.957268
0	C	0.180543	0.643486	0.461268
0	C	0.682256	0.862965	0.551688
0	C	0.831354	0.140485	0.0514516
0	O	0.33235	0.387744	0.822979
0	O	0.177041	0.617204	0.325846
0	O	0.678446	0.888834	0.686301
0	O	0.834395	0.114588	0.185016
0	C	0.381786	0.369824	0.0735044
0	C	0.126583	0.635333	0.575339
0	C	0.629612	0.872348	0.433777
0	C	0.885421	0.13245	0.936972
0	C	0.435841	0.41359	0.0338447
0	C	0.0718023	0.592719	0.536028
0	C	0.575205	0.91626	0.474934
0	C	0.939751	0.0894492	0.975944
0	O	0.440483	0.450714	0.898384
0	O	0.0661505	0.555875	0.398143
0	O	0.569921	0.952411	0.610952
0	O	0.944816	0.051673	0.113008
0	C	0.49092	0.421379	0.14394
0	C	0.0173841	0.585073	0.645389
0	C	0.520291	0.924458	0.36432
0	C	0.994435	0.0828405	0.867107
0	C	0.490261	0.38709	0.287323
0	C	0.018509	0.619054	0.790384
0	C	0.521382	0.890743	0.219612
0	C	0.993327	0.115916	0.722636
0	C	0.434382	0.342955	0.333099
0	C	0.0741039	0.662909	0.833103
0	C	0.577407	0.84684	0.173706
0	C	0.937793	0.159925	0.679505
0	O	0.435879	0.31096	0.469654
0	O	0.0719718	0.695849	0.972778
0	O	0.576359	0.815331	0.0373159
0	O	0.940123	0.192912	0.540099
0	C	0.379497	0.33532	0.224083
0	C	0.128365	0.669942	0.72653
0	C	0.632086	0.838844	0.284277
0	C	0.883691	0.167101	0.786028
0	C	0.324543	0.29139	0.274981
0	C	0.184727	0.713798	0.777559
0	C	0.687011	0.794816	0.232922
0	C	0.827241	0.211171	0.735172
0	O	0.32945	0.259328	0.412793
0	O	0.179563	0.746238	0.912573
0	O	0.682261	0.762835	0.0943158
0	O	0.832109	0.243542	0.599913
0	C	0.269664	0.285628	0.173263
0	C	0.240015	0.718109	0.676652
0	C	0.741518	0.788455	0.335082
0	C	0.772178	0.215762	0.835689
0	C	0.211689	0.241469	0.218321
0	C	0.296483	0.762372	0.720625
0	C	0.79942	0.744038	0.290304
0	C	0.715684	0.259926	0.791432
0	O	0.204065	0.215379	0.350279
0	O	0.305019	0.790839	0.850594
0	O	0.807184	0.718019	0.158328
0	O	0.707095	0.287996	0.661081
0	C	0.159684	0.23233	0.0861269
0	C	0.349302	0.771707	0.588339
0	C	0.851064	0.734763	0.423122
0	C	0.662805	0.269684	0.923367
0	C	0.189351	0.219228	0.919207
0	C	0.319202	0.784692	0.422744
0	C	0.821873	0.722174	0.589581
0	C	0.692921	0.282582	0.0895267
0	C	0.246558	0.267544	0.880287
0	C	0.262066	0.736263	0.384028
0	C	0.764606	0.7705	0.628714
0	C	0.749893	0.233968	0.128541
0	O	0.25728	0.192572	0.923669
0	O	0.251522	0.811395	0.427633
0	O	0.753986	0.695392	0.586718
0	O	0.760645	0.309081	0.0849368
0	C	0.26637	0.321512	0.0117794
0	C	0.243718	0.681772	0.515674
0	C	0.74475	0.824188	0.497058
0	C	0.768492	0.179528	0.99693
0	C	0.146214	0.1879	0.793697
0	C	0.361469	0.816857	0.295121
0	C	0.865128	0.691334	0.716318
0	C	0.650287	0.31478	0.216109
0	Cl	0.138179	0.512319	0.0175031
0	Cl	0.376908	0.492771	0.516464
0	Cl	0.873328	0.0145172	0.490524
0	Cl	0.635957	0.990919	0.995324
0	H	0.916108	0.593565	0.047444
0	H	0.6002	0.41462	0.549116
0	H	0.0952115	0.0949179	0.458632
0	H	0.412748	0.91234	0.959982
0	H	0.96131	0.528214	0.324713
0	H	0.564667	0.483045	0.837816
0	H	0.0492539	0.0276408	0.185754
0	H	0.448292	0.98247	0.673713
0	H	0.805026	0.536694	0.0431951
0	H	0.711197	0.471291	0.544895
0	H	0.206407	0.0365033	0.46567
0	H	0.301923	0.970988	0.969846
0	H	0.812756	0.596934	0.20642
0	H	0.702986	0.412327	0.709434
0	H	0.199379	0.0976575	0.304275
0	H	0.30846	0.911059	0.806509
0	H	0.757011	0.473246	0.26964
0	H	0.758151	0.537497	0.766256
0	H	0.254246	0.974309	0.236564
0	H	0.253881	0.0356888	0.745842
0	H	0.818117	0.502875	0.404536
0	H	0.698666	0.50744	0.904485
0	H	0.192731	0.00492587	0.100943
0	H	0.313499	0.00550379	0.608882
0	H	0.847229	0.313819	0.304542
0	H	0.665222	0.695206	0.805066
0	H	0.163405	0.815379	0.200377
0	H	0.346737	0.193537	0.709332
0	H	0.979311	0.227714	0.170381
0	H	0.529731	0.77898	0.67794
0	H	0.0311047	0.729561	0.336544
0	H	0.4824	0.277041	0.836803
0	H	0.949803	0.345328	0.626774
0	H	0.567301	0.660155	0.120674
0	H	0.0605563	0.848259	0.885338
0	H	0.445084	0.159036	0.389401
0	H	0.936769	0.438542	0.572837
0	H	0.580564	0.567223	0.071534
0	H	0.0736918	0.941301	0.937066
0	H	0.431184	0.0657078	0.438852
0	H	0.868681	0.383024	0.636867
0	H	0.648676	0.623393	0.13079
0	H	0.14164	0.885339	0.874306
0	H	0.363687	0.121751	0.375193
0	H	0.402315	0.43839	0.815455
0	H	0.103536	0.569613	0.31501
0	H	0.608699	0.939468	0.695177
0	H	0.907562	0.0652194	0.195659
0	H	0.532635	0.453707	0.103479
0	H	0.975123	0.551868	0.606516
0	H	0.478625	0.956341	0.404592
0	H	0.0344545	0.0500481	0.905275
0	H	0.530458	0.390466	0.374981
0	H	0.978673	0.61496	0.878433
0	H	0.481368	0.894528	0.131591
0	H	0.0332764	0.112016	0.634563
0	H	0.38361	0.275146	0.484505
0	H	0.120713	0.728227	0.990173
0	H	0.629599	0.778611	0.0229734
0	H	0.891039	0.225495	0.522978
0	H	0.128056	0.185008	0.121219
0	H	0.379966	0.819505	0.624176
0	H	0.882826	0.68736	0.388109
0	H	0.632354	0.317451	0.887422
0	H	0.260048	0.281517	0.756557
0	H	0.247926	0.722828	0.260433
0	H	0.751255	0.784763	0.752359
0	H	0.763809	0.220474	0.252156
0	H	0.218576	0.411909	0.895575
0	H	0.29258	0.592631	0.39802
0	H	0.792807	0.914456	0.612784
0	H	0.719716	0.0901751	0.114092
0	H	0.233482	0.423986	0.106429
0	H	0.278457	0.5802	0.608908
0	H	0.777673	0.926713	0.402198
0	H	0.733814	0.0782037	0.902941
0	H	0.104002	0.222726	0.76867
0	H	0.403201	0.782151	0.26717
0	H	0.907074	0.726503	0.741163
0	H	0.60864	0.279878	0.243876
0	H	0.127265	0.134921	0.829836
0	H	0.379935	0.869818	0.330997
0	H	0.884362	0.638464	0.680921
0	H	0.631561	0.367505	0.17923
0	H	0.171968	0.179642	0.678913
0	H	0.334128	0.82501	0.181534
0	H	0.83916	0.683223	0.831128
0	H	0.677259	0.32328	0.329668
