#******************************************
#
# CIF file created by Zeo++
# Zeo++ is an open source package to
# analyze microporous materials
#
#*******************************************

_cell_length_a		21.7732(0)
_cell_length_b		21.742(0)
_cell_length_c		11.1844(0)
_cell_angle_alpha		90(0)
_cell_angle_beta		90(0)
_cell_angle_gamma		119.945(0)

_symmetry_space_group_name_H-M		'P1'
_symmetry_Int_Tables_number		1
_symmetry_cell_setting		Monoclinic

loop_
_symmetry_equiv_pos_as_xyz
'+x,+y,+z'

loop_
_atom_site_label
_atom_site_type_symbol
_atom_site_fract_x
_atom_site_fract_y
_atom_site_fract_z
0	O	0.478527	0.452518	0.173084
0	O	0.551178	0.0281689	0.175123
0	O	0.974277	0.525222	0.172915
0	O	0.143578	0.785981	0.510321
0	O	0.219219	0.362642	0.51083
0	O	0.640664	0.858259	0.509985
0	O	0.810015	0.119708	0.841875
0	O	0.883056	0.6933	0.841349
0	O	0.309307	0.194113	0.841467
0	O	0.553743	0.593372	0.517837
0	O	0.409273	0.962836	0.518329
0	O	0.0403974	0.449074	0.515784
0	O	0.218773	0.927266	0.853711
0	O	0.0795874	0.296699	0.85644
0	O	0.705803	0.784245	0.856571
0	O	0.890514	0.263386	0.182751
0	O	0.74055	0.629992	0.183331
0	O	0.373606	0.112793	0.179716
0	O	0.378938	0.512001	0.47524
0	O	0.491285	0.867796	0.476989
0	O	0.132878	0.626416	0.476197
0	O	0.042437	0.842776	0.814351
0	O	0.162461	0.204805	0.815112
0	O	0.798333	0.958194	0.813076
0	O	0.713366	0.177237	0.149777
0	O	0.82882	0.539994	0.150256
0	O	0.463458	0.291408	0.149383
0	O	0.347148	0.546605	0.301201
0	O	0.464316	0.804999	0.299235
0	O	0.196557	0.662802	0.299442
0	O	0.00605791	0.871385	0.638796
0	O	0.133935	0.139767	0.639596
0	O	0.866004	0.989729	0.640412
0	O	0.675222	0.206761	0.976981
0	O	0.804417	0.474296	0.975852
0	O	0.528929	0.333468	0.975127
0	N	0.51752	0.407708	0.348409
0	N	0.595104	0.112042	0.350076
0	N	0.890545	0.485434	0.348142
0	N	0.183898	0.741587	0.684256
0	N	0.263414	0.447486	0.684917
0	N	0.556275	0.818824	0.6845
0	N	0.852219	0.0763273	0.0146388
0	N	0.926715	0.778923	0.0140522
0	N	0.224599	0.15198	0.0156032
0	C	0.436823	0.490006	0.166556
0	C	0.513561	0.949	0.168596
0	C	0.0533923	0.567282	0.166735
0	C	0.101507	0.823155	0.50459
0	C	0.181814	0.283355	0.505018
0	C	0.719753	0.899765	0.503892
0	C	0.768471	0.157488	0.837111
0	C	0.845363	0.613971	0.836968
0	C	0.388508	0.235645	0.836392
0	C	0.447013	0.530604	0.288606
0	C	0.473646	0.918761	0.291186
0	C	0.0835933	0.557912	0.289631
0	C	0.110787	0.862406	0.627782
0	C	0.142848	0.253478	0.628312
0	C	0.749816	0.889868	0.626458
0	C	0.778989	0.197243	0.960152
0	C	0.807053	0.585064	0.961086
0	C	0.417848	0.225506	0.959583
0	C	0.551474	0.551017	0.445349
0	C	0.451744	0.00282239	0.44603
0	C	0.000120653	0.451537	0.444005
0	C	0.216674	0.884545	0.781617
0	C	0.121317	0.337068	0.78362
0	C	0.665798	0.78597	0.783351
0	C	0.887071	0.220148	0.110907
0	C	0.783368	0.66985	0.111331
0	C	0.333435	0.116358	0.109089
0	C	0.607389	0.531252	0.420145
0	C	0.471341	0.0784738	0.420192
0	C	0.924515	0.395504	0.4191
0	C	0.27311	0.865607	0.7568
0	C	0.139722	0.412364	0.757906
0	C	0.590588	0.729349	0.757415
0	C	0.942688	0.20013	0.0843833
0	C	0.803022	0.745386	0.084701
0	C	0.257684	0.0610401	0.083615
0	C	0.583337	0.47801	0.321312
0	C	0.524811	0.107391	0.321688
0	C	0.895296	0.419705	0.320433
0	C	0.249353	0.81238	0.65794
0	C	0.192559	0.441902	0.65859
0	C	0.56127	0.753073	0.658241
0	C	0.91749	0.146713	0.985515
0	C	0.856236	0.773801	0.985627
0	C	0.229178	0.0864459	0.985515
0	C	0.507493	0.462091	0.287804
0	C	0.541141	0.0475373	0.289523
0	C	0.9549	0.495807	0.287335
0	C	0.173042	0.795685	0.624648
0	C	0.209602	0.382512	0.625118
0	C	0.620919	0.829279	0.624662
0	C	0.840984	0.130198	0.955083
0	C	0.872837	0.713878	0.954689
0	C	0.289091	0.16287	0.954545
0	C	0.362681	0.43567	0.129965
0	C	0.567663	0.929059	0.130905
0	C	0.0727762	0.641211	0.128963
0	C	0.0276146	0.76866	0.467254
0	C	0.235961	0.263585	0.466907
0	C	0.73985	0.974066	0.467246
0	C	0.694269	0.103407	0.800339
0	C	0.899236	0.593894	0.798471
0	C	0.408481	0.309791	0.798912
0	C	0.331975	0.363198	0.182783
0	C	0.640312	0.970833	0.182465
0	C	0.0308301	0.671806	0.181423
0	C	0.996576	0.696889	0.523013
0	C	0.307568	0.303529	0.522976
0	C	0.70015	0.00590134	0.524016
0	C	0.662021	0.0321798	0.858362
0	C	0.970511	0.632661	0.856067
0	C	0.36977	0.342351	0.856807
0	C	0.328782	0.454462	0.0501966
0	C	0.5481	0.876052	0.0514897
0	C	0.125534	0.675107	0.0494384
0	C	0.994183	0.786822	0.385464
0	C	0.217675	0.212426	0.384233
0	C	0.790945	0.00688941	0.384597
0	C	0.661624	0.121228	0.716517
0	C	0.880902	0.543199	0.71492
0	C	0.458925	0.342053	0.715048
0	C	0.257148	0.406911	0.00012521
0	C	0.59479	0.851162	0.000309175
0	C	0.149596	0.746805	0.999206
0	C	0.922394	0.738958	0.336222
0	C	0.265173	0.188242	0.33396
0	C	0.815432	0.0789192	0.335537
0	C	0.589803	0.0735338	0.667177
0	C	0.92814	0.518577	0.665007
0	C	0.483662	0.413952	0.665185
0	C	0.485342	0.610794	0.266449
0	C	0.393573	0.874732	0.270532
0	C	0.12861	0.522805	0.269245
0	C	0.146231	0.942643	0.608259
0	C	0.0626606	0.208912	0.609062
0	C	0.79123	0.850951	0.605494
0	C	0.814808	0.277432	0.939683
0	C	0.727086	0.538117	0.943343
0	C	0.464528	0.192239	0.939754
0	C	0.376379	0.507127	0.356748
0	C	0.498942	0.872511	0.359723
0	C	0.128784	0.629395	0.358895
0	C	0.0394929	0.836588	0.697056
0	C	0.168685	0.207953	0.69789
0	C	0.797033	0.960511	0.694704
0	C	0.709022	0.171443	0.0317331
0	C	0.835532	0.542584	0.0332483
0	C	0.460697	0.296152	0.0324732
0	C	0.493684	0.511712	0.357153
0	C	0.491368	0.9841	0.358649
0	C	0.0183726	0.509719	0.356471
0	C	0.158646	0.844718	0.694546
0	C	0.160806	0.319058	0.695074
0	C	0.684134	0.843583	0.694809
0	C	0.827854	0.179899	0.0255587
0	C	0.823435	0.651016	0.0252551
0	C	0.352143	0.175725	0.0239317
0	C	0.675626	0.564823	0.470698
0	C	0.437672	0.113283	0.470341
0	C	0.889937	0.327298	0.47026
0	C	0.341374	0.900122	0.807936
0	C	0.104541	0.445596	0.808234
0	C	0.557396	0.660925	0.807703
0	C	0.0109513	0.232975	0.135119
0	C	0.769734	0.780455	0.13537
0	C	0.222114	0.992752	0.134506
0	C	0.697179	0.622148	0.553584
0	C	0.381002	0.078232	0.554524
0	C	0.925523	0.305716	0.553541
0	C	0.362946	0.958854	0.88771
0	C	0.0461899	0.407906	0.888381
0	C	0.594751	0.639852	0.888055
0	C	0.0341091	0.291812	0.215305
0	C	0.711172	0.744575	0.215836
0	C	0.257931	0.969304	0.213714
0	C	0.766538	0.658857	0.5956
0	C	0.344282	0.111095	0.596082
0	C	0.892899	0.236251	0.595656
0	C	0.43257	0.996963	0.928331
0	C	0.00673476	0.438234	0.927956
0	C	0.564093	0.570008	0.927582
0	C	0.103529	0.327645	0.257379
0	C	0.674844	0.777823	0.257562
0	C	0.224267	0.899815	0.25585
0	C	0.816026	0.639132	0.558818
0	C	0.363346	0.179894	0.557669
0	C	0.823823	0.186645	0.55884
0	C	0.482352	0.977159	0.893768
0	C	0.0248629	0.507224	0.892062
0	C	0.495105	0.519605	0.891728
0	C	0.151703	0.305604	0.223522
0	C	0.696212	0.847825	0.223156
0	C	0.153857	0.85189	0.223154
0	C	0.795323	0.581046	0.481591
0	C	0.420789	0.216663	0.479206
0	C	0.786525	0.207436	0.481638
0	C	0.461351	0.917153	0.821121
0	C	0.084495	0.546897	0.819149
0	C	0.455789	0.539994	0.818647
0	C	0.129429	0.246028	0.149289
0	C	0.755531	0.885332	0.148691
0	C	0.116453	0.874484	0.149844
0	C	0.726385	0.544301	0.437544
0	C	0.457508	0.184227	0.435635
0	C	0.818699	0.276458	0.437487
0	C	0.392154	0.879068	0.778306
0	C	0.123856	0.516892	0.777194
0	C	0.486117	0.609374	0.776671
0	C	0.060417	0.210151	0.105281
0	C	0.79185	0.852523	0.104872
0	C	0.149659	0.94356	0.105665
0	C	0.283336	0.537955	0.354933
0	C	0.465319	0.747654	0.361439
0	C	0.253537	0.720252	0.363363
0	C	0.9505	0.872919	0.705776
0	C	0.130431	0.0820403	0.707544
0	C	0.921873	0.0503351	0.700438
0	C	0.61494	0.200635	0.040227
0	C	0.802213	0.418041	0.0464652
0	C	0.585381	0.386173	0.0470444
0	H	0.465036	0.52955	0.0939734
0	H	0.473615	0.937646	0.0967905
0	H	0.0651293	0.538765	0.0952254
0	H	0.129892	0.863422	0.433068
0	H	0.141444	0.271762	0.433948
0	H	0.731096	0.871292	0.431727
0	H	0.796552	0.197455	0.765064
0	H	0.804592	0.601871	0.766381
0	H	0.400387	0.207262	0.764804
0	H	0.623339	0.481826	0.258393
0	H	0.520933	0.142928	0.25731
0	H	0.859407	0.379879	0.256982
0	H	0.289347	0.816561	0.594628
0	H	0.187881	0.477571	0.595493
0	H	0.525516	0.713074	0.594857
0	H	0.956568	0.150584	0.920543
0	H	0.852178	0.809087	0.920924
0	H	0.193449	0.0473193	0.921058
0	H	0.510425	0.365952	0.29517
0	H	0.637022	0.146441	0.29705
0	H	0.855942	0.492699	0.295039
0	H	0.177367	0.700317	0.630307
0	H	0.304579	0.482506	0.631366
0	H	0.521535	0.825477	0.630931
0	H	0.844596	0.0344344	0.961323
0	H	0.968306	0.813131	0.960232
0	H	0.190009	0.159693	0.963428
0	H	0.371764	0.35443	0.228133
0	H	0.649136	0.0192732	0.228345
0	H	0.981166	0.631462	0.22315
0	H	0.0364198	0.688355	0.568779
0	H	0.316939	0.352641	0.567254
0	H	0.651662	0.966348	0.569738
0	H	0.701667	0.0220488	0.900781
0	H	0.982494	0.684529	0.892207
0	H	0.319702	0.302812	0.898417
0	H	0.307051	0.321579	0.114164
0	H	0.681494	0.987799	0.113013
0	H	0.0161099	0.698745	0.113375
0	H	0.971126	0.654305	0.456104
0	H	0.350204	0.319372	0.456589
0	H	0.683366	0.0319611	0.457688
0	H	0.633217	0.988955	0.793653
0	H	0.0133984	0.64295	0.793009
0	H	0.356144	0.371945	0.792401
0	H	0.289991	0.353032	0.248562
0	H	0.651028	0.93891	0.247428
0	H	0.0617561	0.712106	0.25026
0	H	0.955115	0.688173	0.589128
0	H	0.315222	0.270663	0.590453
0	H	0.733251	0.0469935	0.590346
0	H	0.623105	0.0263185	0.927509
0	H	0.974335	0.60113	0.930496
0	H	0.402783	0.380742	0.926816
0	H	0.35351	0.509074	0.0166357
0	H	0.493253	0.846537	0.0193083
0	H	0.155512	0.650334	0.0165442
0	H	0.0193091	0.840958	0.349755
0	H	0.163599	0.183947	0.34848
0	H	0.819005	0.981011	0.347892
0	H	0.687597	0.174932	0.678666
0	H	0.827011	0.515483	0.678169
0	H	0.486273	0.315575	0.677658
0	H	0.25521	0.41749	0.904016
0	H	0.583873	0.838839	0.904239
0	H	0.161768	0.748632	0.903002
0	H	0.919203	0.750007	0.240791
0	H	0.253519	0.173816	0.238695
0	H	0.829481	0.0820258	0.240038
0	H	0.586914	0.0843182	0.571533
0	H	0.916681	0.504303	0.569698
0	H	0.498068	0.416688	0.569953
0	H	0.216851	0.415314	0.0447469
0	H	0.585843	0.802116	0.0445994
0	H	0.198464	0.787036	0.0434369
0	H	0.881977	0.746226	0.383049
0	H	0.258286	0.140667	0.380841
0	H	0.863184	0.119104	0.382348
0	H	0.549486	0.0811946	0.713316
0	H	0.920753	0.47085	0.71193
0	H	0.531296	0.454228	0.712192
0	H	0.239614	0.350156	0.00855453
0	H	0.65161	0.8898	0.00850299
0	H	0.110591	0.764531	0.00837485
0	H	0.905902	0.682383	0.34339
0	H	0.321713	0.228226	0.339972
0	H	0.775681	0.0957986	0.342836
0	H	0.573045	0.0169311	0.674935
0	H	0.984715	0.558326	0.671564
0	H	0.444054	0.431045	0.671433
0	H	0.534661	0.629418	0.215782
0	H	0.37345	0.903472	0.217791
0	H	0.100361	0.473647	0.217147
0	H	0.19536	0.963475	0.556313
0	H	0.0417449	0.237797	0.558768
0	H	0.760012	0.800993	0.556565
0	H	0.8631	0.297662	0.88553
0	H	0.704745	0.563882	0.88814
0	H	0.438491	0.144392	0.884018
0	H	0.499111	0.639826	0.35171
0	H	0.365179	0.860459	0.356393
0	H	0.14352	0.509379	0.355183
0	H	0.159821	0.97071	0.694424
0	H	0.0347125	0.193485	0.695255
0	H	0.806879	0.837973	0.69107
0	H	0.829822	0.305719	0.0258097
0	H	0.699651	0.525563	0.0302246
0	H	0.477373	0.176882	0.0259221
0	H	0.451406	0.626005	0.216329
0	H	0.379589	0.824998	0.223103
0	H	0.177843	0.558912	0.221195
0	H	0.110454	0.956446	0.560713
0	H	0.0489761	0.159855	0.55974
0	H	0.839992	0.884194	0.554229
0	H	0.778777	0.291658	0.89402
0	H	0.714379	0.487596	0.900009
0	H	0.51478	0.23008	0.896006
0	H	0.336422	0.446907	0.346939
0	H	0.559714	0.895757	0.351331
0	H	0.105171	0.66672	0.349648
0	H	0.00173139	0.775631	0.687154
0	H	0.22957	0.230998	0.687739
0	H	0.777593	0.00129341	0.683682
0	H	0.670655	0.110301	0.0241207
0	H	0.897118	0.568407	0.0238595
0	H	0.435115	0.33214	0.0241763
0	H	0.658598	0.637216	0.583287
0	H	0.366376	0.0249591	0.585872
0	H	0.978992	0.344356	0.583715
0	H	0.324179	0.973921	0.916322
0	H	0.0323683	0.354482	0.917741
0	H	0.648034	0.679091	0.918043
0	H	0.996707	0.308885	0.242936
0	H	0.694649	0.690271	0.244027
0	H	0.31261	0.00654083	0.240347
0	H	0.782732	0.702958	0.657589
0	H	0.300675	0.0837381	0.65902
0	H	0.920663	0.220052	0.657948
0	H	0.448715	0.0422548	0.987626
0	H	0.961632	0.408638	0.987259
0	H	0.593338	0.554122	0.987092
0	H	0.120832	0.37293	0.317225
0	H	0.629722	0.749784	0.317487
0	H	0.252398	0.882268	0.314711
0	H	0.870893	0.668891	0.590584
0	H	0.333617	0.205144	0.589164
0	H	0.798663	0.131729	0.590722
0	H	0.537467	0.00813871	0.92378
0	H	0.992695	0.53018	0.921343
0	H	0.471685	0.464423	0.921467
0	H	0.206651	0.334626	0.255075
0	H	0.666772	0.873457	0.254544
0	H	0.127944	0.796873	0.254783
0	H	0.833719	0.565079	0.455735
0	H	0.436256	0.270751	0.452089
0	H	0.732205	0.169045	0.455982
0	H	0.499689	0.900611	0.797869
0	H	0.0996899	0.601343	0.794953
0	H	0.401356	0.501049	0.794508
0	H	0.16677	0.228244	0.125794
0	H	0.772785	0.94029	0.124811
0	H	0.0612198	0.837374	0.127113
0	H	0.71114	0.50016	0.376208
0	H	0.501156	0.212752	0.373463
0	H	0.78976	0.291787	0.37641
0	H	0.3766	0.833205	0.720956
0	H	0.169252	0.547572	0.719241
0	H	0.455651	0.624528	0.718958
0	H	0.0440659	0.164684	0.0466825
0	H	0.837071	0.881625	0.045885
0	H	0.120551	0.960239	0.0477195
0	H	0.276409	0.578976	0.3095
0	H	0.428631	0.7011	0.3081
0	H	0.300094	0.730556	0.30979
0	H	0.93821	0.907389	0.650862
0	H	0.0948242	0.0356302	0.653075
0	H	0.969298	0.0590997	0.651169
0	H	0.603569	0.237545	0.990754
0	H	0.770552	0.371252	0.989925
0	H	0.632184	0.400666	0.991028
0	H	0.290499	0.547904	0.451212
0	H	0.445856	0.743458	0.452949
0	H	0.257468	0.70389	0.454237
0	H	0.969678	0.89606	0.794261
0	H	0.107827	0.0792668	0.796107
0	H	0.924784	0.0378899	0.794349
0	H	0.628781	0.217651	0.133226
0	H	0.775719	0.413304	0.13193
0	H	0.589165	0.363474	0.132193
0	H	0.239217	0.484745	0.33562
0	H	0.519117	0.755699	0.359908
0	H	0.245589	0.766144	0.363771
0	H	0.904894	0.819179	0.712136
0	H	0.183401	0.0882324	0.713877
0	H	0.913587	0.0958001	0.691596
0	H	0.570739	0.146011	0.0344383
0	H	0.856137	0.427576	0.0593987
0	H	0.577045	0.431371	0.0607493
