#******************************************
#
# CIF file created by Zeo++
# Zeo++ is an open source package to
# analyze microporous materials
#
#*******************************************

_cell_length_a		9.32131(0)
_cell_length_b		21.6001(0)
_cell_length_c		24.5731(0)
_cell_angle_alpha		90(0)
_cell_angle_beta		90(0)
_cell_angle_gamma		90(0)

_symmetry_space_group_name_H-M		'P1'
_symmetry_Int_Tables_number		1
_symmetry_cell_setting		Monoclinic

loop_
_symmetry_equiv_pos_as_xyz
'+x,+y,+z'

loop_
_atom_site_label
_atom_site_type_symbol
_atom_site_fract_x
_atom_site_fract_y
_atom_site_fract_z
0	C	0.698059	0.371419	0.280741
0	C	0.81104	0.622212	0.78081
0	C	0.310258	0.869142	0.219584
0	C	0.197659	0.124463	0.719669
0	H	0.784018	0.335538	0.274872
0	H	0.724687	0.657956	0.775054
0	H	0.223836	0.833471	0.225387
0	H	0.284593	0.159919	0.725406
0	C	0.605285	0.377741	0.228483
0	C	0.903848	0.61604	0.728549
0	C	0.403193	0.875298	0.271878
0	C	0.104793	0.11847	0.77197
0	H	0.619566	0.33382	0.204117
0	H	0.889413	0.660052	0.70433
0	H	0.388518	0.83143	0.296276
0	H	0.119547	0.162434	0.796217
0	C	0.446732	0.37931	0.249177
0	C	0.0623657	0.614411	0.749286
0	C	0.561722	0.876521	0.251119
0	C	0.946303	0.117157	0.751193
0	C	0.452102	0.346331	0.305213
0	C	0.0569969	0.647328	0.805361
0	C	0.555984	0.843443	0.195148
0	C	0.952087	0.150209	0.695199
0	H	0.372768	0.365506	0.334575
0	H	0.136327	0.62804	0.834666
0	H	0.635403	0.862429	0.165712
0	H	0.872493	0.131161	0.665854
0	H	0.424993	0.296252	0.300544
0	H	0.0842135	0.697389	0.800802
0	H	0.582707	0.793329	0.199833
0	H	0.925219	0.200296	0.699845
0	C	0.651296	0.311302	0.367978
0	C	0.857475	0.682483	0.868012
0	C	0.356995	0.808466	0.132424
0	C	0.151504	0.185346	0.632642
0	C	0.665169	0.245067	0.345283
0	C	0.843702	0.748728	0.845312
0	C	0.343257	0.742236	0.155184
0	C	0.165089	0.251589	0.655368
0	C	0.559432	0.204875	0.32754
0	C	0.949601	0.788882	0.827613
0	C	0.44901	0.701988	0.172857
0	C	0.0591034	0.291734	0.673003
0	H	0.447085	0.219025	0.327312
0	H	0.0619282	0.774757	0.827364
0	H	0.561399	0.716079	0.173054
0	H	0.946774	0.277598	0.673176
0	C	0.598621	0.14524	0.309863
0	C	0.910392	0.848528	0.809967
0	C	0.409857	0.64232	0.190477
0	C	0.0981928	0.351421	0.690606
0	H	0.515838	0.113007	0.296293
0	H	0.993072	0.880753	0.796396
0	H	0.49259	0.610015	0.20399
0	H	0.0154042	0.383657	0.704064
0	C	0.741848	0.126802	0.30959
0	C	0.767192	0.867038	0.809681
0	C	0.266652	0.623857	0.190769
0	C	0.24134	0.369978	0.690914
0	H	0.77076	0.0802748	0.29574
0	H	0.738236	0.913573	0.795828
0	H	0.23782	0.577252	0.204572
0	H	0.270048	0.416592	0.70475
0	C	0.850135	0.167524	0.327006
0	C	0.658777	0.826386	0.827099
0	C	0.158394	0.664587	0.173379
0	C	0.349814	0.329338	0.67351
0	H	0.962051	0.153159	0.325953
0	H	0.546711	0.840745	0.826112
0	H	0.0464472	0.65025	0.174369
0	H	0.461816	0.34377	0.674461
0	C	0.811457	0.225943	0.345285
0	C	0.697431	0.767938	0.845332
0	C	0.197042	0.723026	0.155152
0	C	0.311321	0.270865	0.655308
0	C	0.899626	0.275981	0.368237
0	C	0.609081	0.71792	0.868241
0	C	0.108797	0.77301	0.13216
0	C	0.399741	0.220898	0.632336
0	C	0.046301	0.279291	0.37709
0	C	0.462358	0.714725	0.877126
0	C	0.962137	0.776187	0.123245
0	C	0.546427	0.21775	0.62333
0	H	0.116957	0.241724	0.364697
0	H	0.391869	0.752361	0.864787
0	H	0.89167	0.738539	0.135617
0	H	0.616957	0.255422	0.635567
0	C	0.102363	0.332902	0.401763
0	C	0.406086	0.661129	0.901756
0	C	0.905944	0.829727	0.0984989
0	C	0.602646	0.164177	0.59864
0	H	0.217558	0.336003	0.409221
0	H	0.290878	0.658113	0.909243
0	H	0.790755	0.832706	0.0909623
0	H	0.717804	0.161169	0.591065
0	C	0.0126085	0.381622	0.416673
0	C	0.495645	0.612313	0.916607
0	C	0.995554	0.878506	0.0835906
0	C	0.513121	0.115351	0.583808
0	H	0.0576591	0.422873	0.435507
0	H	0.450407	0.571064	0.935418
0	H	0.95035	0.919676	0.0646771
0	H	0.558273	0.0741442	0.564909
0	C	0.863707	0.378633	0.407336
0	C	0.644588	0.615215	0.907237
0	C	0.144429	0.875652	0.0930231
0	C	0.364218	0.118204	0.593278
0	H	0.794168	0.417059	0.41872
0	H	0.713785	0.576705	0.918656
0	H	0.213822	0.914122	0.0816161
0	H	0.294925	0.0797296	0.581842
0	C	0.808076	0.326091	0.383067
0	C	0.700494	0.66772	0.882982
0	C	0.200215	0.823172	0.117347
0	C	0.308382	0.170677	0.617596
0	C	0.510979	0.374493	0.437001
0	C	0.997341	0.619193	0.937128
0	C	0.497594	0.87152	0.0633423
0	C	0.0115267	0.122224	0.563463
0	H	0.540805	0.416246	0.414581
0	H	0.9678	0.577493	0.914528
0	H	0.46777	0.913305	0.0857452
0	H	0.0408868	0.0804991	0.586026
0	C	0.427834	0.379633	0.484091
0	C	0.0797254	0.613983	0.984417
0	C	0.580724	0.876572	0.0162317
0	C	0.929229	0.11707	0.51617
0	H	0.393506	0.425085	0.498222
0	H	0.113657	0.568493	0.998601
0	H	0.615063	0.921993	0.00203375
0	H	0.895221	0.0716176	0.501985
0	C	0.38953	0.326661	0.513395
0	C	0.117771	0.666888	0.0139043
0	C	0.619093	0.823567	0.986945
0	C	0.891435	0.170009	0.486733
0	H	0.32539	0.33052	0.550323
0	H	0.180923	0.662953	0.0510815
0	H	0.683101	0.827372	0.949988
0	H	0.828206	0.16611	0.449584
0	C	0.435331	0.26859	0.495406
0	C	0.0723478	0.724979	0.995773
0	C	0.573123	0.765534	0.00502581
0	C	0.936839	0.228081	0.504878
0	H	0.406628	0.227188	0.518468
0	H	0.100799	0.766337	0.0189564
0	H	0.601752	0.724106	0.981967
0	H	0.908454	0.269438	0.481738
0	C	0.518829	0.2633	0.448356
0	C	0.989533	0.730391	0.948562
0	C	0.489509	0.760312	0.0520568
0	C	0.0195733	0.233411	0.55211
0	H	0.555036	0.217554	0.43565
0	H	0.953617	0.776166	0.935737
0	H	0.453096	0.714586	0.0647915
0	H	0.0554443	0.279166	0.564951
0	C	0.556575	0.316137	0.418489
0	C	0.951936	0.677584	0.918615
0	C	0.451825	0.813202	0.0818851
0	C	0.0570351	0.180567	0.582025
0	C	0.769012	0.433319	0.295472
0	C	0.740445	0.56029	0.795452
0	C	0.240372	0.931332	0.204884
0	C	0.26719	0.0621715	0.705032
0	C	0.985657	0.493064	0.279566
0	C	0.523809	0.500396	0.779748
0	C	0.0255966	0.992559	0.221005
0	C	0.482035	0.000908592	0.721107
0	H	0.0967226	0.476208	0.272146
0	H	0.41284	0.517279	0.772234
0	H	0.914144	0.976194	0.228557
0	H	0.59331	0.0173869	0.728798
0	H	0.975078	0.512575	0.32091
0	H	0.534284	0.48096	0.821154
0	H	0.0364405	0.0114387	0.179415
0	H	0.471536	0.982037	0.679477
0	C	0.953943	0.520238	0.180808
0	C	0.555585	0.473087	0.680988
0	C	0.05694	0.0209899	0.319497
0	C	0.450653	0.972381	0.819614
0	H	0.0236654	0.481333	0.170612
0	H	0.485695	0.511944	0.670686
0	H	0.988439	0.98178	0.330044
0	H	0.519247	0.0115624	0.830263
0	C	0.889545	0.555532	0.139909
0	C	0.619939	0.437749	0.6401
0	C	0.119577	0.0572624	0.36012
0	C	0.388043	0.936067	0.860234
0	H	0.906487	0.543815	0.0973456
0	H	0.603113	0.449427	0.597465
0	H	0.102341	0.0460053	0.402733
0	H	0.40521	0.947283	0.902919
0	C	0.803227	0.606239	0.153543
0	C	0.706128	0.387015	0.653808
0	C	0.204285	0.108316	0.346104
0	C	0.30342	0.885008	0.846148
0	H	0.752464	0.633522	0.121655
0	H	0.756913	0.359664	0.621967
0	H	0.253759	0.136334	0.377767
0	H	0.253905	0.856935	0.877771
0	C	0.783245	0.622179	0.208167
0	C	0.726021	0.371144	0.708454
0	C	0.223945	0.123724	0.291346
0	C	0.283756	0.869678	0.791374
0	H	0.7191	0.66254	0.219053
0	H	0.789878	0.330741	0.719401
0	H	0.286564	0.164401	0.280172
0	H	0.221301	0.828991	0.78014
0	C	0.84511	0.586306	0.249278
0	C	0.664354	0.407116	0.749538
0	C	0.163493	0.0870162	0.250511
0	C	0.344025	0.906466	0.750561
0	H	0.826683	0.598304	0.291917
0	H	0.68281	0.395216	0.792179
0	H	0.181019	0.098897	0.207815
0	H	0.326383	0.894707	0.707859
0	C	0.928879	0.534676	0.235677
0	C	0.580602	0.458731	0.735888
0	C	0.0818615	0.0348664	0.264502
0	C	0.425713	0.95858	0.76459
0	C	0.647596	0.431978	0.191985
0	C	0.861643	0.561834	0.692022
0	C	0.361464	0.929725	0.308289
0	C	0.146571	0.0641276	0.80844
0	H	0.619903	0.477954	0.209785
0	H	0.889207	0.515894	0.709906
0	H	0.389258	0.975571	0.290235
0	H	0.119006	0.0182902	0.790358
0	H	0.767124	0.434483	0.18727
0	H	0.74221	0.55942	0.6872
0	H	0.241997	0.93232	0.31312
0	H	0.266	0.0616648	0.813316
0	C	0.583885	0.425219	0.135853
0	C	0.925714	0.568417	0.635938
0	C	0.425724	0.923333	0.364376
0	C	0.0820622	0.07035	0.864493
0	C	0.475388	0.490019	0.0622323
0	C	0.0326895	0.503404	0.562169
0	C	0.533263	0.988675	0.437801
0	C	0.97589	0.00474553	0.938017
0	C	0.589396	0.477935	0.019229
0	C	0.918865	0.515738	0.51917
0	C	0.419411	0.97667	0.480856
0	C	0.0896557	0.0170012	0.981043
0	H	0.684685	0.506914	0.0256793
0	H	0.823497	0.486791	0.525415
0	H	0.32488	0.00623346	0.474957
0	H	0.184208	0.987422	0.975341
0	H	0.54969	0.487453	0.977975
0	H	0.958749	0.506382	0.477975
0	H	0.459735	0.985443	0.522074
0	H	0.0491907	0.00844342	0.0222939
0	H	0.625766	0.429416	0.0200022
0	H	0.882758	0.564254	0.520036
0	H	0.382007	0.928351	0.47963
0	H	0.126929	0.0653051	0.979675
0	C	0.432698	0.557941	0.0669124
0	C	0.0743249	0.435356	0.566802
0	C	0.575229	0.056661	0.432923
0	C	0.934955	0.936666	0.93315
0	H	0.525356	0.587064	0.077296
0	H	0.981134	0.406519	0.577138
0	H	0.48197	0.0854912	0.422713
0	H	0.0286272	0.908118	0.922895
0	H	0.353754	0.565002	0.0996331
0	H	0.153124	0.427937	0.599532
0	H	0.653694	0.063921	0.400107
0	H	0.856463	0.929086	0.900383
0	H	0.386344	0.575412	0.0289292
0	H	0.120297	0.417761	0.528785
0	H	0.621934	0.0742378	0.470776
0	H	0.888917	0.918915	0.971063
0	C	0.347177	0.44675	0.0586197
0	C	0.161328	0.546432	0.558521
0	C	0.661543	0.945513	0.441612
0	C	0.847218	0.0476551	0.941836
0	H	0.380081	0.397703	0.0560168
0	H	0.128722	0.5955	0.555759
0	H	0.62823	0.896548	0.444523
0	H	0.880246	0.0966423	0.944841
0	H	0.281233	0.456474	0.0226997
0	H	0.227296	0.536551	0.522632
0	H	0.72776	0.955352	0.477413
0	H	0.781009	0.0377413	0.977612
0	H	0.277484	0.450585	0.0945281
0	H	0.230936	0.542668	0.594468
0	H	0.73134	0.949163	0.405742
0	H	0.777557	0.0440703	0.905924
0	C	0.386148	0.446224	0.255474
0	C	0.122663	0.547412	0.755578
0	C	0.622987	0.943303	0.24457
0	C	0.885195	0.0503172	0.744712
0	C	0.213516	0.329902	0.225898
0	C	0.295497	0.663665	0.725872
0	C	0.794678	0.827099	0.274427
0	C	0.71353	0.166547	0.774527
0	C	0.989594	0.308254	0.184731
0	C	0.519387	0.685527	0.684825
0	C	0.0183973	0.804889	0.315557
0	C	0.489789	0.18904	0.81553
0	H	0.944689	0.307892	0.225095
0	H	0.564193	0.686044	0.725194
0	H	0.0632507	0.804602	0.275157
0	H	0.445091	0.189712	0.77509
0	C	0.910673	0.287271	0.136323
0	C	0.598392	0.706258	0.636344
0	C	0.0978384	0.784073	0.363903
0	C	0.410421	0.20948	0.864034
0	H	0.806214	0.31393	0.133612
0	H	0.702296	0.679243	0.633465
0	H	0.202177	0.810824	0.366464
0	H	0.30657	0.182419	0.866825
0	C	0.985017	0.292296	0.0812838
0	C	0.523297	0.701473	0.581443
0	C	0.0237026	0.78912	0.41897
0	C	0.485408	0.204666	0.918961
0	C	0.0374767	0.344436	0.0552842
0	C	0.469238	0.649511	0.555637
0	C	0.971114	0.841272	0.44492
0	C	0.539365	0.152687	0.944776
0	H	0.0352125	0.389406	0.0750433
0	H	0.470885	0.604504	0.57537
0	H	0.973306	0.886276	0.425192
0	H	0.537692	0.10771	0.92504
0	C	0.093559	0.337864	0.00238618
0	C	0.412285	0.656337	0.502896
0	C	0.914847	0.834622	0.497786
0	C	0.59628	0.159462	0.997528
0	H	0.134577	0.378372	0.981019
0	H	0.370106	0.615999	0.481666
0	H	0.873551	0.875096	0.519085
0	H	0.638427	0.119095	0.0187819
0	C	0.0964125	0.280353	0.976609
0	C	0.410032	0.713856	0.477146
0	C	0.912178	0.777116	0.523548
0	C	0.598626	0.216985	0.0232957
0	H	0.140794	0.276202	0.935709
0	H	0.364774	0.718193	0.436373
0	H	0.8675	0.772921	0.564436
0	H	0.643801	0.221315	0.0640651
0	C	0.0422932	0.227292	0.00267238
0	C	0.465553	0.766728	0.503017
0	C	0.966548	0.724077	0.497569
0	C	0.543086	0.269859	0.99739
0	H	0.0429462	0.182774	0.981828
0	H	0.465296	0.811262	0.482228
0	H	0.965994	0.67955	0.518391
0	H	0.543422	0.314368	0.0182486
0	C	0.987126	0.233432	0.0548213
0	C	0.521776	0.760351	0.554994
0	C	0.0217678	0.730256	0.445428
0	C	0.486945	0.263532	0.9454
0	C	0.919529	0.18764	0.090843
0	C	0.590705	0.805892	0.590894
0	C	0.0894068	0.68449	0.409406
0	C	0.418023	0.309065	0.909496
0	C	0.893887	0.124925	0.0834869
0	C	0.617281	0.868522	0.583481
0	C	0.115162	0.621785	0.416812
0	C	0.391333	0.371695	0.916899
0	H	0.929221	0.101633	0.0466262
0	H	0.582094	0.891839	0.546603
0	H	0.0799936	0.598547	0.453741
0	H	0.426556	0.395038	0.953757
0	C	0.820123	0.0924256	0.124429
0	C	0.691763	0.900794	0.624381
0	C	0.188714	0.589285	0.375831
0	C	0.316665	0.403968	0.876064
0	H	0.79806	0.0432685	0.119207
0	H	0.714293	0.9499	0.619152
0	H	0.210764	0.540119	0.381084
0	H	0.293868	0.453058	0.881307
0	C	0.773512	0.122546	0.171395
0	C	0.738287	0.870538	0.671287
0	C	0.235053	0.619376	0.328808
0	C	0.270075	0.373763	0.829143
0	H	0.714112	0.0966611	0.20222
0	H	0.798103	0.896276	0.702065
0	H	0.294288	0.593402	0.297972
0	H	0.209966	0.39953	0.798408
0	C	0.800427	0.18607	0.179444
0	C	0.710618	0.807083	0.679345
0	C	0.20812	0.682893	0.320734
0	C	0.297959	0.310333	0.821047
0	H	0.76402	0.208808	0.216477
0	H	0.746988	0.784272	0.716331
0	H	0.244387	0.705598	0.283674
0	H	0.261615	0.287556	0.784043
0	C	0.873024	0.218157	0.139255
0	C	0.637244	0.775217	0.639231
0	C	0.135647	0.714983	0.360952
0	C	0.371479	0.278456	0.861142
0	N	0.599346	0.357869	0.327137
0	N	0.909617	0.635865	0.827237
0	N	0.408877	0.855166	0.173203
0	N	0.0992452	0.138569	0.673275
0	N	0.354473	0.344446	0.21057
0	N	0.154562	0.649268	0.710643
0	N	0.653899	0.84159	0.289762
0	N	0.854193	0.152107	0.789842
0	H	0.374098	0.352398	0.169818
0	H	0.134378	0.641573	0.669869
0	H	0.633901	0.849402	0.330528
0	H	0.874423	0.144501	0.830643
0	O	0.905884	0.434209	0.276791
0	O	0.603516	0.559292	0.776827
0	O	0.104214	0.933389	0.224314
0	O	0.403295	0.0600711	0.724503
0	O	0.714063	0.476861	0.319016
0	O	0.795436	0.516665	0.81896
0	O	0.29581	0.974345	0.180783
0	O	0.211718	0.0191819	0.680978
0	O	0.567339	0.376769	0.111416
0	O	0.943464	0.616844	0.61163
0	O	0.443272	0.874969	0.388829
0	O	0.0634106	0.118682	0.888855
0	O	0.546669	0.481415	0.116623
0	O	0.961538	0.51209	0.616602
0	O	0.461972	0.979707	0.38346
0	O	0.0471111	0.0138692	0.883658
0	O	0.289169	0.466125	0.227457
0	O	0.219372	0.527431	0.727494
0	O	0.720176	0.963095	0.272542
0	O	0.788181	0.0304898	0.772719
0	O	0.167922	0.321278	0.271374
0	O	0.341525	0.672122	0.7714
0	O	0.840772	0.818571	0.229009
0	O	0.667126	0.174999	0.729055
0	O	0.129747	0.323916	0.178236
0	O	0.379307	0.669888	0.678253
0	O	0.878564	0.820599	0.322169
0	O	0.629479	0.173193	0.822196
0	O	0.436682	0.483721	0.294781
0	O	0.0720489	0.509887	0.794822
0	O	0.572815	0.980622	0.205101
0	O	0.93553	0.0129203	0.705341
0	H	0.528406	0.470205	0.315454
0	H	0.980527	0.523435	0.815559
0	H	0.481078	0.967114	0.184417
0	H	0.0269021	0.0265135	0.684499
