#******************************************
#
# CIF file created by Zeo++
# Zeo++ is an open source package to
# analyze microporous materials
#
#*******************************************

_cell_length_a		11.1693(0)
_cell_length_b		11.1823(0)
_cell_length_c		8.30097(0)
_cell_angle_alpha		90(0)
_cell_angle_beta		90(0)
_cell_angle_gamma		90(0)

_symmetry_space_group_name_H-M		'P1'
_symmetry_Int_Tables_number		1
_symmetry_cell_setting		Monoclinic

loop_
_symmetry_equiv_pos_as_xyz
'+x,+y,+z'

loop_
_atom_site_label
_atom_site_type_symbol
_atom_site_fract_x
_atom_site_fract_y
_atom_site_fract_z
0	C	0.934417	0.343109	0.193575
0	C	0.0768545	0.667893	0.193651
0	C	0.344313	0.0755834	0.789884
0	C	0.667644	0.934894	0.790082
0	C	0.0902768	0.370312	0.822539
0	C	0.921109	0.640682	0.822598
0	C	0.370974	0.920526	0.161095
0	C	0.641051	0.0904206	0.161101
0	C	8.96128e-05	0.164563	0.342512
0	C	0.0122053	0.846884	0.3429
0	C	0.164942	0.0118408	0.640467
0	C	0.846948	0.99845	0.640512
0	C	0.243226	0.344464	0.0353519
0	C	0.768605	0.666423	0.0359535
0	C	0.345347	0.768122	0.947954
0	C	0.666661	0.242438	0.947314
0	H	0.940891	0.391392	0.0780722
0	H	0.0694468	0.619584	0.0784649
0	H	0.393793	0.0667895	0.904177
0	H	0.61797	0.94362	0.904698
0	H	0.310984	0.392326	0.963385
0	H	0.700516	0.618913	0.964136
0	H	0.392799	0.700224	0.020128
0	H	0.619259	0.310566	0.0191251
0	H	0.291244	0.276983	0.108582
0	H	0.720949	0.733764	0.109827
0	H	0.278013	0.720449	0.874065
0	H	0.734018	0.289883	0.873205
0	H	0.202421	0.409371	0.119229
0	H	0.809482	0.601133	0.11931
0	H	0.410848	0.808823	0.864623
0	H	0.601094	0.201548	0.864134
0	H	0.842026	0.307583	0.202794
0	H	0.169424	0.703295	0.201506
0	H	0.3091	0.168137	0.784303
0	H	0.702699	0.842297	0.784157
0	H	0.945739	0.409764	0.29077
0	H	0.066137	0.601544	0.291308
0	H	0.409803	0.0657498	0.691257
0	H	0.60187	0.944847	0.691894
0	H	0.0287553	0.321194	0.740999
0	H	0.982322	0.689843	0.740669
0	H	0.321688	0.981336	0.243383
0	H	0.690348	0.0294955	0.243202
0	H	0.154122	0.419207	0.745148
0	H	0.857009	0.591806	0.745682
0	H	0.420198	0.856434	0.237573
0	H	0.592083	0.154581	0.237721
0	H	0.0367375	0.437598	0.889334
0	H	0.974881	0.573435	0.888987
0	H	0.438125	0.974672	0.0946639
0	H	0.573682	0.0364076	0.0948752
0	H	0.913801	0.117401	0.326936
0	H	0.0987037	0.89346	0.326975
0	H	0.11875	0.0984787	0.656388
0	H	0.892994	0.91176	0.656485
0	H	0.0719192	0.0966453	0.35286
0	H	0.940811	0.915219	0.353144
0	H	0.0962214	0.940881	0.63019
0	H	0.915861	0.0693349	0.630183
0	H	0.996244	0.212589	0.458759
0	H	0.01589	0.798982	0.459281
0	H	0.212931	0.015276	0.52409
0	H	0.79898	0.995061	0.524128
0	N	0.15378	0.0618068	0.0748793
0	N	0.85817	0.949254	0.0751666
0	N	0.0622161	0.857706	0.90823
0	N	0.94964	0.153005	0.907721
0	N	0.0302564	0.251352	0.212806
0	N	0.981343	0.759951	0.213598
0	N	0.251798	0.980544	0.769795
0	N	0.76009	0.029891	0.769765
0	N	0.157815	0.28395	0.923896
0	N	0.853906	0.726999	0.924453
0	N	0.284591	0.853501	0.0591359
0	N	0.727361	0.157316	0.0588527
0	P	0.0673637	0.179517	0.0290437
0	P	0.944421	0.831426	0.0295209
0	P	0.180113	0.943934	0.953903
0	P	0.83179	0.0668236	0.953743
