#******************************************
#
# CIF file created by Zeo++
# Zeo++ is an open source package to
# analyze microporous materials
#
#*******************************************

_cell_length_a		24.1029(0)
_cell_length_b		24.0399(0)
_cell_length_c		8.98393(0)
_cell_angle_alpha		90(0)
_cell_angle_beta		90(0)
_cell_angle_gamma		121.053(0)

_symmetry_space_group_name_H-M		'P1'
_symmetry_Int_Tables_number		1
_symmetry_cell_setting		Monoclinic

loop_
_symmetry_equiv_pos_as_xyz
'+x,+y,+z'

loop_
_atom_site_label
_atom_site_type_symbol
_atom_site_fract_x
_atom_site_fract_y
_atom_site_fract_z
0	O	0.110152	0.568301	0.437265
0	O	0.462044	0.552132	0.441105
0	O	0.479579	0.917606	0.439863
0	O	0.922802	0.455671	0.571387
0	O	0.571297	0.475156	0.571346
0	O	0.553818	0.107919	0.570373
0	O	0.781252	0.901997	0.77249
0	O	0.130872	0.886946	0.776528
0	O	0.141899	0.250227	0.77411
0	O	0.593483	0.792307	0.908423
0	O	0.239242	0.808853	0.905835
0	O	0.221886	0.439375	0.904797
0	O	0.440239	0.23383	0.102232
0	O	0.794104	0.216264	0.103989
0	O	0.811857	0.586164	0.105005
0	O	0.252511	0.123736	0.237965
0	O	0.902765	0.138198	0.232961
0	O	0.891835	0.77534	0.235601
0	O	0.989761	0.561848	0.398371
0	O	0.465976	0.437021	0.399024
0	O	0.592538	0.041681	0.399734
0	O	0.0432003	0.462258	0.610806
0	O	0.567569	0.59021	0.613373
0	O	0.44097	0.983853	0.610433
0	O	0.661961	0.897999	0.734272
0	O	0.134759	0.772187	0.733593
0	O	0.258159	0.371795	0.73152
0	O	0.712646	0.796398	0.947052
0	O	0.236572	0.924481	0.950834
0	O	0.105838	0.318068	0.947869
0	O	0.320881	0.229305	0.0635864
0	O	0.796993	0.10078	0.0590183
0	O	0.927974	0.70748	0.0616338
0	O	0.371949	0.128062	0.276413
0	O	0.898595	0.252729	0.276114
0	O	0.775774	0.653739	0.278259
0	C	0.105842	0.614465	0.349807
0	C	0.415546	0.501084	0.352434
0	C	0.531179	0.925025	0.35165
0	C	0.927084	0.409521	0.658893
0	C	0.618063	0.526188	0.659592
0	C	0.502219	0.100478	0.658631
0	C	0.777645	0.948286	0.684128
0	C	0.0841883	0.836051	0.687868
0	C	0.192335	0.255127	0.685495
0	C	0.59689	0.745794	0.996434
0	C	0.285966	0.859299	0.995315
0	C	0.17169	0.434624	0.994063
0	C	0.436648	0.280203	0.0140788
0	C	0.747405	0.165777	0.0145688
0	C	0.862025	0.59087	0.0157099
0	C	0.256188	0.0774515	0.3262
0	C	0.949379	0.189084	0.321764
0	C	0.841402	0.770379	0.324349
0	C	0.0458927	0.609928	0.325938
0	C	0.418823	0.445059	0.32685
0	C	0.586389	0.986802	0.327855
0	C	0.987065	0.414189	0.683242
0	C	0.614872	0.582261	0.68507
0	C	0.44704	0.0386759	0.682423
0	C	0.718292	0.944995	0.660419
0	C	0.0876588	0.780223	0.661281
0	C	0.248898	0.315653	0.659724
0	C	0.656299	0.749212	0.0204497
0	C	0.283075	0.915391	0.0230709
0	C	0.115119	0.374142	0.0200551
0	C	0.377155	0.276628	0.990193
0	C	0.750385	0.10973	0.986859
0	C	0.918607	0.651338	0.989608
0	C	0.315615	0.0809066	0.34997
0	C	0.945789	0.244837	0.3484
0	C	0.784906	0.709808	0.350146
0	C	0.0419064	0.655244	0.236066
0	C	0.373011	0.395085	0.236298
0	C	0.637449	0.993813	0.23981
0	C	0.991062	0.368983	0.773523
0	C	0.660869	0.632326	0.775133
0	C	0.395935	0.0316166	0.770348
0	C	0.714942	0.990039	0.568062
0	C	0.0423441	0.730592	0.569222
0	C	0.298232	0.320229	0.56895
0	C	0.659372	0.703481	0.11075
0	C	0.328931	0.964497	0.115399
0	C	0.0658143	0.369722	0.110658
0	C	0.373927	0.32229	0.899995
0	C	0.704544	0.0605618	0.894669
0	C	0.967845	0.655687	0.898887
0	C	0.319017	0.0357941	0.441979
0	C	0.991098	0.294527	0.440364
0	C	0.735488	0.705153	0.440729
0	C	0.0981693	0.704456	0.168307
0	C	0.324626	0.402163	0.169458
0	C	0.632108	0.938749	0.172813
0	C	0.934777	0.319761	0.841162
0	C	0.709289	0.625219	0.841719
0	C	0.401203	0.0866506	0.837329
0	C	0.771273	0.0377364	0.497708
0	C	0.99408	0.737766	0.502111
0	C	0.290028	0.263923	0.502229
0	C	0.602658	0.654751	0.178047
0	C	0.377044	0.956598	0.180938
0	C	0.0740569	0.426134	0.176942
0	C	0.430562	0.371079	0.83252
0	C	0.656352	0.0683521	0.82918
0	C	0.959563	0.599234	0.83274
0	C	0.262682	0.98791	0.511975
0	C	0.0393974	0.287418	0.507509
0	C	0.743561	0.761426	0.507348
0	C	0.157473	0.707938	0.188735
0	C	0.322538	0.458742	0.191109
0	C	0.576202	0.877674	0.191962
0	C	0.875444	0.31616	0.820238
0	C	0.71123	0.568552	0.82032
0	C	0.457098	0.147752	0.818264
0	C	0.829989	0.0399224	0.517961
0	C	0.991674	0.794111	0.525052
0	C	0.232954	0.204026	0.524098
0	C	0.543908	0.652413	0.157522
0	C	0.37889	0.900052	0.15643
0	C	0.131183	0.485974	0.154945
0	C	0.48939	0.373555	0.85283
0	C	0.654397	0.124837	0.853648
0	C	0.902449	0.539408	0.854928
0	C	0.203912	0.985618	0.491812
0	C	0.0418404	0.231084	0.484708
0	C	0.800609	0.821363	0.485601
0	C	0.161924	0.66347	0.280711
0	C	0.36752	0.508304	0.283799
0	C	0.525662	0.870187	0.282836
0	C	0.870973	0.360494	0.727827
0	C	0.666097	0.51892	0.728002
0	C	0.507665	0.155287	0.727418
0	C	0.833821	0.995732	0.612231
0	C	0.0362289	0.84335	0.619059
0	C	0.18401	0.199053	0.616927
0	C	0.540442	0.697515	0.0657769
0	C	0.333713	0.85124	0.0626467
0	C	0.180133	0.490783	0.0623879
0	C	0.493007	0.328524	0.944531
0	C	0.699568	0.173717	0.947341
0	C	0.853528	0.534673	0.947479
0	C	0.200013	0.0298405	0.397796
0	C	0.997344	0.181826	0.390678
0	C	0.849614	0.826419	0.392854
0	H	0.995317	0.651769	0.219617
0	H	0.375401	0.351377	0.218764
0	H	0.680659	0.0417701	0.224599
0	H	0.0376753	0.372555	0.79037
0	H	0.658575	0.676093	0.792526
0	H	0.352741	0.983641	0.785486
0	H	0.668654	0.987243	0.551426
0	H	0.0451958	0.687199	0.550692
0	H	0.342288	0.367326	0.551107
0	H	0.705633	0.706255	0.127506
0	H	0.326825	0.00823625	0.135083
0	H	0.021725	0.322669	0.128458
0	H	0.327612	0.319422	0.883405
0	H	0.706684	0.0168343	0.87507
0	H	0.0119376	0.702723	0.880915
0	H	0.365346	0.0386757	0.458618
0	H	0.98819	0.337893	0.458822
0	H	0.691468	0.658021	0.45848
0	H	0.0957776	0.74036	0.0980424
0	H	0.288262	0.363274	0.0989429
0	H	0.671899	0.943473	0.104388
0	H	0.937165	0.283935	0.911741
0	H	0.745793	0.664177	0.911884
0	H	0.36136	0.0818937	0.905596
0	H	0.769414	0.0732767	0.424965
0	H	0.958085	0.69917	0.430421
0	H	0.328381	0.266744	0.431512
0	H	0.604253	0.618276	0.24779
0	H	0.413502	0.994875	0.252507
0	H	0.0356245	0.423444	0.247096
0	H	0.428836	0.407485	0.762786
0	H	0.61991	0.0300179	0.757714
0	H	0.997958	0.601895	0.7625
0	H	0.264571	0.952285	0.584359
0	H	0.0753869	0.326053	0.579148
0	H	0.705116	0.75855	0.577807
0	H	0.20063	0.745906	0.131827
0	H	0.28524	0.464001	0.134766
0	H	0.572276	0.835482	0.135338
0	H	0.832263	0.278189	0.877049
0	H	0.748535	0.563271	0.876591
0	H	0.460969	0.189924	0.874877
0	H	0.873101	0.0764947	0.458428
0	H	0.954519	0.79949	0.468318
0	H	0.226813	0.160857	0.467595
0	H	0.500347	0.614821	0.213941
0	H	0.416063	0.894156	0.2114
0	H	0.137342	0.529299	0.210702
0	H	0.532876	0.411178	0.796218
0	H	0.617157	0.130645	0.798754
0	H	0.896256	0.496044	0.799304
0	H	0.160801	0.948907	0.551113
0	H	0.0789963	0.225744	0.541569
0	H	0.806657	0.864504	0.54206
0	H	0.208083	0.666538	0.299634
0	H	0.365608	0.552013	0.303627
0	H	0.482619	0.822619	0.301378
0	H	0.824795	0.357334	0.708529
0	H	0.667888	0.475136	0.70834
0	H	0.550688	0.202878	0.708892
0	H	0.879413	0.997568	0.630511
0	H	0.0341158	0.886891	0.639515
0	H	0.139918	0.1525	0.63693
0	H	0.494753	0.695456	0.0470719
0	H	0.335229	0.807448	0.0408948
0	H	0.224269	0.537297	0.0422658
0	H	0.538751	0.330676	0.963076
0	H	0.697953	0.217457	0.969091
0	H	0.809376	0.488182	0.96767
0	H	0.154375	0.027908	0.379496
0	H	0.999489	0.138299	0.370278
0	H	0.893664	0.873012	0.37285
0	C	0.108064	0.578077	0.590827
0	C	0.452307	0.539045	0.594358
0	C	0.492867	0.921951	0.593134
0	C	0.924879	0.446007	0.417816
0	C	0.58116	0.487738	0.417951
0	C	0.540428	0.103406	0.417131
0	C	0.779686	0.91209	0.926025
0	C	0.121212	0.874378	0.930041
0	C	0.154613	0.253179	0.92744
0	C	0.595389	0.782221	0.754985
0	C	0.249684	0.821908	0.752726
0	C	0.20856	0.435915	0.751744
0	C	0.438151	0.243884	0.255623
0	C	0.783695	0.203164	0.2571
0	C	0.825096	0.589415	0.258063
0	C	0.253999	0.113627	0.0844161
0	C	0.912358	0.150924	0.0794913
0	C	0.878926	0.77215	0.0823236
0	C	0.95955	0.501455	0.326871
0	C	0.526117	0.46745	0.327255
0	C	0.561129	0.0693158	0.327253
0	C	0.0733534	0.522713	0.682009
0	C	0.507365	0.559213	0.684898
0	C	0.472242	0.956108	0.683019
0	C	0.630862	0.837372	0.663644
0	C	0.19489	0.802652	0.661883
0	C	0.227841	0.400962	0.660698
0	C	0.743976	0.85701	0.0174974
0	C	0.176089	0.894112	0.0210521
0	C	0.135768	0.288493	0.0185223
0	C	0.289633	0.168737	0.992968
0	C	0.857446	0.131215	0.988652
0	C	0.897843	0.736907	0.991205
0	C	0.40279	0.188709	0.346956
0	C	0.838481	0.222238	0.34787
0	C	0.805934	0.624446	0.349196
0	C	0.959562	0.494669	0.172185
0	C	0.533067	0.474689	0.172643
0	C	0.553228	0.0677602	0.172715
0	C	0.0732762	0.529647	0.836632
0	C	0.500381	0.551354	0.839403
0	C	0.480097	0.957605	0.83757
0	C	0.631039	0.830147	0.509117
0	C	0.20211	0.81099	0.507576
0	C	0.219654	0.399909	0.506338
0	C	0.74434	0.864277	0.172085
0	C	0.168715	0.886618	0.175599
0	C	0.143766	0.289304	0.172928
0	C	0.28923	0.161492	0.838374
0	C	0.864759	0.138777	0.8341
0	C	0.889735	0.736018	0.836818
0	C	0.402497	0.195936	0.501465
0	C	0.831242	0.21376	0.502142
0	C	0.814072	0.625411	0.503549
0	C	0.926431	0.432612	0.109245
0	C	0.594854	0.503432	0.109579
0	C	0.523041	0.0984526	0.109018
0	C	0.106397	0.591761	0.899307
0	C	0.43856	0.522187	0.902431
0	C	0.510067	0.926695	0.901263
0	C	0.597024	0.768021	0.446748
0	C	0.26394	0.839308	0.444895
0	C	0.19099	0.432329	0.443949
0	C	0.779334	0.926323	0.234488
0	C	0.106923	0.858489	0.23825
0	C	0.171506	0.25603	0.235429
0	C	0.254269	0.0994427	0.775957
0	C	0.926533	0.167003	0.771306
0	C	0.861711	0.76903	0.774394
0	C	0.436284	0.258078	0.563822
0	C	0.769424	0.185555	0.564844
0	C	0.842464	0.592707	0.565865
0	C	0.892787	0.377673	0.199254
0	C	0.649401	0.524341	0.199444
0	C	0.501356	0.131051	0.198184
0	C	0.140089	0.646617	0.809052
0	C	0.384013	0.501468	0.81272
0	C	0.531572	0.893939	0.812113
0	C	0.562348	0.71341	0.537225
0	C	0.318173	0.858618	0.534776
0	C	0.171131	0.466182	0.534229
0	C	0.814389	0.980823	0.143905
0	C	0.0526243	0.838453	0.148082
0	C	0.190549	0.221463	0.14526
0	C	0.21929	0.044915	0.866499
0	C	0.980882	0.187079	0.861346
0	C	0.842461	0.803413	0.864623
0	C	0.47083	0.312713	0.473331
0	C	0.715224	0.166513	0.475065
0	C	0.86211	0.558695	0.475526
0	C	0.141554	0.639923	0.654791
0	C	0.390764	0.510281	0.658568
0	C	0.522477	0.890939	0.65798
0	C	0.891373	0.384226	0.35359
0	C	0.642669	0.516095	0.353728
0	C	0.510555	0.134163	0.352272
0	C	0.815085	0.973893	0.989553
0	C	0.0596847	0.846818	0.993876
0	C	0.181699	0.219517	0.991152
0	C	0.560989	0.72034	0.691433
0	C	0.311201	0.84964	0.688914
0	C	0.180309	0.468514	0.688247
0	C	0.472299	0.305794	0.319154
0	C	0.722203	0.175579	0.320941
0	C	0.853055	0.556525	0.321474
0	C	0.218643	0.0518266	0.0208812
0	C	0.973877	0.17861	0.0155282
0	C	0.851485	0.805495	0.0186813
0	H	0.985338	0.53728	0.100779
0	H	0.490769	0.458191	0.101301
0	H	0.570287	0.042733	0.101956
0	H	0.0474531	0.487094	0.908201
0	H	0.542688	0.567722	0.910658
0	H	0.463125	0.982714	0.908316
0	H	0.657666	0.872452	0.437219
0	H	0.160078	0.795756	0.436134
0	H	0.235302	0.373915	0.434721
0	H	0.71757	0.821985	0.243876
0	H	0.210841	0.902664	0.247234
0	H	0.128523	0.315664	0.244438
0	H	0.315935	0.203791	0.766569
0	H	0.822601	0.122709	0.762579
0	H	0.905076	0.709752	0.765267
0	H	0.375949	0.1536	0.573314
0	H	0.873257	0.228831	0.573552
0	H	0.798556	0.651504	0.575209
0	H	0.927038	0.427243	0.988773
0	H	0.600334	0.509515	0.989084
0	H	0.516359	0.0967581	0.988593
0	H	0.10574	0.597235	0.0197312
0	H	0.433073	0.515643	0.0228302
0	H	0.516711	0.928342	0.0217013
0	H	0.597746	0.762311	0.326415
0	H	0.269653	0.846269	0.324664
0	H	0.184145	0.431062	0.323683
0	H	0.779221	0.932048	0.354936
0	H	0.101257	0.852308	0.358674
0	H	0.178199	0.257104	0.355708
0	H	0.25434	0.0937344	0.655489
0	H	0.93215	0.173225	0.650883
0	H	0.854931	0.767886	0.654138
0	H	0.435488	0.263782	0.684138
0	H	0.763694	0.178484	0.68505
0	H	0.849253	0.593883	0.686141
0	H	0.867725	0.329026	0.149783
0	H	0.697892	0.547797	0.150051
0	H	0.476549	0.153975	0.148462
0	H	0.165144	0.695308	0.858296
0	H	0.335499	0.477712	0.862052
0	H	0.556163	0.870805	0.861885
0	H	0.53647	0.664698	0.488244
0	H	0.366667	0.881514	0.485443
0	H	0.147761	0.490722	0.485403
0	H	0.84115	0.02941	0.193173
0	H	0.00412048	0.815631	0.197121
0	H	0.212998	0.196065	0.194326
0	H	0.192546	0.996331	0.817227
0	H	0.0293742	0.210001	0.812206
0	H	0.81973	0.82856	0.815673
0	H	0.496534	0.36143	0.522298
0	H	0.666744	0.143747	0.524426
0	H	0.885221	0.533888	0.524294
0	H	0.168374	0.68283	0.584711
0	H	0.348141	0.49445	0.58873
0	H	0.538734	0.864776	0.58866
0	H	0.864575	0.341258	0.423498
0	H	0.685302	0.532059	0.423633
0	H	0.494167	0.160223	0.421567
0	H	0.842712	0.0164604	0.918797
0	H	0.0173036	0.831597	0.923489
0	H	0.19621	0.192151	0.920791
0	H	0.533671	0.677602	0.761874
0	H	0.353614	0.864603	0.758983
0	H	0.165086	0.49533	0.75845
0	H	0.499531	0.348539	0.248686
0	H	0.679816	0.160806	0.250936
0	H	0.86812	0.529597	0.251206
0	H	0.191077	0.00922795	0.0915857
0	H	0.0162853	0.19383	0.0858332
0	H	0.836826	0.832739	0.0890563
