#******************************************
#
# CIF file created by Zeo++
# Zeo++ is an open source package to
# analyze microporous materials
#
#*******************************************

_cell_length_a		16.5539(0)
_cell_length_b		9.89729(0)
_cell_length_c		21.5547(0)
_cell_angle_alpha		90(0)
_cell_angle_beta		109.147(0)
_cell_angle_gamma		90(0)

_symmetry_space_group_name_H-M		'P1'
_symmetry_Int_Tables_number		1
_symmetry_cell_setting		Monoclinic

loop_
_symmetry_equiv_pos_as_xyz
'+x,+y,+z'

loop_
_atom_site_label
_atom_site_type_symbol
_atom_site_fract_x
_atom_site_fract_y
_atom_site_fract_z
0	S	0.576132	0.731922	0.487758
0	S	0.423175	0.234784	0.523558
0	Si	0.901722	0.777062	0.630859
0	Si	0.0962954	0.278067	0.380481
0	O	0.502167	0.776714	0.433078
0	O	0.496947	0.282071	0.577742
0	O	0.609652	0.597844	0.481018
0	O	0.391642	0.0995479	0.530802
0	N	0.654949	0.845687	0.493567
0	N	0.343088	0.346079	0.518109
0	C	0.491813	0.847543	0.634127
0	C	0.505647	0.353385	0.376689
0	H	0.460929	0.936315	0.64638
0	H	0.536337	0.442574	0.36456
0	C	0.553007	0.735537	0.559737
0	C	0.445198	0.239935	0.45116
0	C	0.732132	0.87584	0.553474
0	C	0.265976	0.375654	0.458025
0	H	0.718869	0.857537	0.600313
0	H	0.279395	0.35705	0.411267
0	C	0.721711	0.0308416	0.533414
0	C	0.275976	0.530705	0.477791
0	C	0.809903	0.797345	0.551595
0	C	0.188105	0.297396	0.459828
0	H	0.835888	0.841908	0.514451
0	H	0.162177	0.341986	0.497011
0	H	0.78976	0.692982	0.532286
0	H	0.208071	0.19297	0.479035
0	C	0.638166	0.992094	0.47667
0	C	0.359309	0.492691	0.534863
0	H	0.578654	0.0336529	0.481186
0	H	0.418868	0.534689	0.530632
0	H	0.638373	0.0140107	0.426518
0	H	0.358625	0.514596	0.584897
0	C	0.976774	0.540053	0.599873
0	C	0.0200265	0.0426007	0.411582
0	H	0.917345	0.520174	0.559416
0	H	0.079332	0.0225647	0.452132
0	H	0.971145	0.489861	0.643742
0	H	0.0255346	0.991691	0.367858
0	H	0.0282485	0.488577	0.587632
0	H	0.968276	0.991907	0.423853
0	C	0.996078	0.692372	0.61117
0	C	0.00134666	0.194992	0.399948
0	C	0.51376	0.848284	0.576996
0	C	0.484102	0.353208	0.434
0	H	0.497918	0.937965	0.545359
0	H	0.500011	0.442462	0.465894
0	C	0.706762	0.120911	0.58641
0	C	0.291053	0.620197	0.42467
0	H	0.766427	0.125323	0.629215
0	H	0.231504	0.624159	0.381768
0	H	0.657083	0.0780912	0.604696
0	H	0.340886	0.577127	0.406601
0	C	0.92938	0.9498	0.66833
0	C	0.0687931	0.450574	0.342884
0	C	0.790163	0.0933375	0.508876
0	C	0.207215	0.593241	0.50197
0	H	0.851511	0.0983472	0.550065
0	H	0.14604	0.598246	0.460623
0	H	0.801766	0.0285428	0.470823
0	H	0.195297	0.528527	0.539893
0	C	0.870244	0.665131	0.689752
0	C	0.127584	0.166532	0.321377
0	C	0.901134	0.131608	0.73476
0	C	0.0961014	0.632018	0.275921
0	H	0.868687	0.168323	0.767987
0	H	0.128511	0.668854	0.242686
0	C	0.00789503	0.753781	0.548955
0	C	0.98944	0.257757	0.461863
0	H	0.0658384	0.713527	0.541237
0	H	0.930959	0.219111	0.469338
0	H	0.0151417	0.864083	0.552083
0	H	0.983054	0.368208	0.458489
0	H	0.954438	0.729744	0.504473
0	H	0.0424536	0.23327	0.506565
0	C	0.924042	0.656091	0.755394
0	C	0.0741805	0.15928	0.255565
0	H	0.983163	0.714777	0.7725
0	H	0.0154715	0.218993	0.23851
0	C	0.0794691	0.710665	0.669389
0	C	0.918254	0.213665	0.341498
0	H	0.0752436	0.666995	0.715005
0	H	0.922624	0.169682	0.295991
0	H	0.097451	0.817315	0.679055
0	H	0.900607	0.32041	0.331689
0	H	0.133039	0.660233	0.659505
0	H	0.864367	0.163873	0.351206
0	C	0.889069	0.998132	0.712041
0	C	0.109013	0.498941	0.299138
0	H	0.847348	0.93243	0.728887
0	H	0.151271	0.433605	0.282687
0	C	0.98347	0.0374267	0.648968
0	C	0.013973	0.5375	0.361786
0	H	0.0161842	0.00277452	0.61523
0	H	0.981392	0.502574	0.395587
0	C	0.569797	0.621396	0.600726
0	C	0.428056	0.126464	0.409764
0	H	0.599107	0.531237	0.58732
0	H	0.398744	0.0361885	0.423007
0	C	0.772962	0.505889	0.714728
0	C	0.224293	0.00662485	0.296135
0	H	0.713352	0.448619	0.699158
0	H	0.283471	0.948225	0.311688
0	C	0.507954	0.732776	0.67484
0	C	0.489439	0.239078	0.335708
0	C	0.95451	0.218194	0.714608
0	C	0.0419032	0.717874	0.295522
0	H	0.963317	0.322294	0.732027
0	H	0.0323188	0.821616	0.277623
0	C	0.902758	0.572694	0.80009
0	C	0.0953474	0.0763643	0.210659
0	H	0.945056	0.566287	0.850722
0	H	0.0533563	0.0713128	0.159895
0	C	0.764053	0.236098	0.481466
0	C	0.23344	0.735929	0.529348
0	H	0.815373	0.280201	0.465327
0	H	0.182207	0.780295	0.545477
0	H	0.706568	0.230536	0.43708
0	H	0.290933	0.730302	0.573735
0	C	0.548115	0.620098	0.65784
0	C	0.449311	0.126059	0.352476
0	H	0.562394	0.531221	0.690259
0	H	0.434821	0.0376193	0.319745
0	C	0.826849	0.498034	0.779874
0	C	0.170715	0.000306284	0.230861
0	H	0.809166	0.434771	0.814741
0	H	0.188166	0.93701	0.195883
0	C	0.481485	0.729421	0.73453
0	C	0.515743	0.23626	0.275929
0	H	0.507029	0.815598	0.767329
0	H	0.489775	0.322299	0.243139
0	H	0.503931	0.636737	0.763954
0	H	0.493718	0.143405	0.246573
0	H	0.411579	0.731804	0.721721
0	H	0.585642	0.239589	0.288685
0	C	0.794871	0.588169	0.669849
0	C	0.202542	0.088559	0.341207
0	H	0.752039	0.590721	0.61899
0	H	0.245138	0.0900868	0.392147
0	C	0.996209	0.170518	0.672076
0	C	0.000287838	0.670071	0.338082
0	H	0.0386864	0.237106	0.656937
0	H	0.957113	0.736004	0.352788
0	C	0.680874	0.264471	0.560628
0	C	0.316776	0.763947	0.450186
0	H	0.673124	0.328206	0.600524
0	H	0.324368	0.827385	0.410157
0	H	0.616865	0.262487	0.522554
0	H	0.380823	0.762232	0.488226
0	C	0.745524	0.32879	0.532285
0	C	0.252044	0.828341	0.478444
0	H	0.71946	0.427	0.509045
0	H	0.278009	0.926597	0.50158
0	H	0.805527	0.351939	0.572364
0	H	0.192043	0.851192	0.438306
0	S	0.561781	0.35529	0.820828
0	S	0.436664	0.854422	0.19096
0	Si	0.299848	0.331933	0.902423
0	Si	0.697974	0.829477	0.108681
0	O	0.574145	0.373098	0.890462
0	O	0.424305	0.873233	0.121371
0	O	0.599967	0.456113	0.78928
0	O	0.399079	0.955397	0.222869
0	N	0.454288	0.3641	0.781942
0	N	0.544229	0.860858	0.229764
0	C	0.340628	0.24342	0.736096
0	C	0.657314	0.738425	0.274885
0	C	0.596905	0.197265	0.808436
0	C	0.400584	0.696634	0.202757
0	C	0.389525	0.296142	0.808075
0	C	0.608426	0.792499	0.203157
0	H	0.41842	0.212223	0.842763
0	H	0.579001	0.709287	0.168199
0	C	0.622371	0.170882	0.753768
0	C	0.375525	0.669636	0.257553
0	H	0.616403	0.249188	0.716426
0	H	0.38223	0.747247	0.295336
0	C	0.389625	0.293401	0.979971
0	C	0.608162	0.790166	0.0312861
0	C	0.604256	0.0952972	0.855165
0	C	0.392252	0.59551	0.155474
0	H	0.585332	0.115372	0.89855
0	H	0.410907	0.616021	0.112006
0	C	0.213516	0.0979745	0.626408
0	C	0.783966	0.591412	0.384206
0	H	0.18975	0.0676395	0.574118
0	H	0.807545	0.560659	0.436448
0	H	0.1693	0.0531896	0.649687
0	H	0.828083	0.546428	0.360896
0	C	0.249929	0.297605	0.704001
0	C	0.748221	0.791672	0.307019
0	H	0.208767	0.260344	0.731982
0	H	0.78919	0.754219	0.278908
0	H	0.249353	0.409223	0.707256
0	H	0.749206	0.903325	0.303958
0	C	0.304128	0.0421561	0.659003
0	C	0.693204	0.536376	0.351447
0	H	0.303339	0.930563	0.656732
0	H	0.693691	0.42475	0.35348
0	H	0.345684	0.0753143	0.630432
0	H	0.651718	0.56948	0.380095
0	C	0.213006	0.252557	0.632076
0	C	0.785003	0.746044	0.378848
0	H	0.147333	0.291936	0.610128
0	H	0.850806	0.784826	0.400907
0	H	0.25131	0.296978	0.603345
0	H	0.746835	0.790586	0.407647
0	C	0.341665	0.0889175	0.730683
0	C	0.655807	0.583861	0.279873
0	H	0.407359	0.0491772	0.75254
0	H	0.590013	0.544648	0.257906
0	H	0.303855	0.0450912	0.759832
0	H	0.693505	0.540037	0.250635
0	C	0.245422	0.927674	0.855462
0	C	0.752569	0.425703	0.155897
0	H	0.282752	0.836291	0.85731
0	H	0.715142	0.334538	0.154302
0	C	0.41057	0.314423	0.71336
0	C	0.587756	0.809465	0.29805
0	H	0.448063	0.247356	0.692435
0	H	0.549969	0.74218	0.318612
0	H	0.387546	0.399639	0.678983
0	H	0.611213	0.893781	0.332903
0	C	0.65584	0.0449212	0.746287
0	C	0.34159	0.543823	0.264675
0	H	0.675794	0.0259389	0.703656
0	H	0.322061	0.524239	0.30745
0	C	0.346269	0.398388	0.839145
0	C	0.651894	0.894899	0.17232
0	H	0.29728	0.457581	0.801105
0	H	0.701216	0.953263	0.210537
0	H	0.394667	0.476284	0.865922
0	H	0.603732	0.973496	0.145992
0	C	0.472063	0.346702	0.99284
0	C	0.525473	0.842365	0.0184895
0	H	0.488633	0.409368	0.956671
0	H	0.508623	0.904542	0.0546811
0	C	0.373573	0.209507	0.0272253
0	C	0.624507	0.706727	0.983976
0	H	0.310741	0.163209	0.0180688
0	H	0.687502	0.661027	0.993096
0	C	0.28666	0.0512146	0.875872
0	C	0.711468	0.549242	0.135339
0	H	0.356625	0.0532978	0.894465
0	H	0.641488	0.551474	0.116858
0	C	0.23934	0.170307	0.873366
0	C	0.758897	0.668111	0.137561
0	C	0.438118	0.181407	0.086464
0	C	0.560067	0.678314	0.924742
0	H	0.424824	0.113469	0.12181
0	H	0.573634	0.610965	0.8893
0	C	0.536619	0.318624	0.0522113
0	C	0.461002	0.813893	0.959123
0	H	0.600263	0.360215	0.0606641
0	H	0.397184	0.854737	0.950681
0	C	0.663623	0.942474	0.793162
0	C	0.332842	0.442264	0.217239
0	C	0.227852	0.469764	0.92065
0	C	0.769268	0.96826	0.0902422
0	C	0.14982	0.162408	0.850267
0	C	0.848397	0.659959	0.160416
0	H	0.110927	0.253529	0.846862
0	H	0.887346	0.750854	0.163515
0	C	0.156142	0.921053	0.833312
0	C	0.841834	0.418814	0.177903
0	H	0.124002	0.824809	0.818004
0	H	0.873881	0.322579	0.193397
0	C	0.108467	0.0385065	0.83099
0	C	0.889617	0.535977	0.179844
0	H	0.0388721	0.0336806	0.813761
0	H	0.959197	0.530864	0.196916
0	C	0.519684	0.236734	0.0992622
0	C	0.478251	0.732588	0.912006
0	H	0.569671	0.214895	0.145449
0	H	0.428334	0.710424	0.865805
0	C	0.636551	0.968769	0.847522
0	C	0.359405	0.469203	0.162704
0	H	0.641255	0.889813	0.883968
0	H	0.354045	0.39084	0.125867
0	C	0.155433	0.511975	0.857864
0	C	0.841617	0.0113043	0.152911
0	H	0.114305	0.588299	0.869256
0	H	0.882582	0.0876467	0.141301
0	H	0.114073	0.426098	0.835058
0	H	0.883117	0.925812	0.175977
0	H	0.179839	0.556126	0.820902
0	H	0.817078	0.0559355	0.189704
0	C	0.2843	0.593516	0.949372
0	C	0.712402	0.0915312	0.0613993
0	H	0.246819	0.674021	0.962019
0	H	0.749725	0.172714	0.0490698
0	H	0.313397	0.63754	0.915057
0	H	0.682724	0.134935	0.0955028
0	H	0.336644	0.569217	0.994712
0	H	0.660464	0.0670569	0.0158789
0	C	0.188277	0.416971	0.971583
0	C	0.808896	0.915514	0.0393213
0	H	0.23734	0.388333	0.017927
0	H	0.759867	0.886525	0.993022
0	H	0.14698	0.328867	0.953935
0	H	0.850373	0.827602	0.0570291
0	H	0.148937	0.49524	0.983691
0	H	0.848025	0.993993	0.0271092
0	C	0.700598	0.808547	0.786276
0	C	0.29557	0.308475	0.223925
0	H	0.763257	0.792862	0.824143
0	H	0.233168	0.292736	0.185733
0	H	0.709706	0.793234	0.738487
0	H	0.285854	0.293468	0.271519
0	H	0.659945	0.723313	0.791611
0	H	0.336475	0.223231	0.219022
