#******************************************
#
# CIF file created by Zeo++
# Zeo++ is an open source package to
# analyze microporous materials
#
#*******************************************

_cell_length_a		15.6051(0)
_cell_length_b		15.7454(0)
_cell_length_c		6.2276(0)
_cell_angle_alpha		90(0)
_cell_angle_beta		90(0)
_cell_angle_gamma		121.132(0)

_symmetry_space_group_name_H-M		'P1'
_symmetry_Int_Tables_number		1
_symmetry_cell_setting		Monoclinic

loop_
_symmetry_equiv_pos_as_xyz
'+x,+y,+z'

loop_
_atom_site_label
_atom_site_type_symbol
_atom_site_fract_x
_atom_site_fract_y
_atom_site_fract_z
0	C	0.38593	0.957222	0.483132
0	C	0.0742508	0.423166	0.482789
0	C	0.612002	0.656819	0.478491
0	C	0.660025	0.0659416	0.996109
0	C	0.971954	0.602641	0.996655
0	C	0.431676	0.368005	0.998765
0	C	0.659348	0.0670017	0.600959
0	C	0.970658	0.601178	0.601227
0	C	0.4324	0.367882	0.603308
0	C	0.38536	0.95828	0.0880229
0	C	0.0727801	0.421633	0.0873664
0	C	0.613774	0.655208	0.0831574
0	H	0.364197	0.914917	0.632061
0	H	0.117151	0.442837	0.631164
0	H	0.592236	0.679739	0.625981
0	H	0.681967	0.107274	0.146076
0	H	0.930195	0.584018	0.146451
0	H	0.450614	0.345689	0.148158
0	H	0.681088	0.109258	0.452092
0	H	0.927867	0.581578	0.452701
0	H	0.451786	0.345406	0.454617
0	H	0.363523	0.916955	0.938091
0	H	0.114516	0.44027	0.937484
0	H	0.594911	0.676862	0.932811
0	C	0.441544	0.0608061	0.48367
0	C	0.970009	0.376485	0.483732
0	C	0.658308	0.600984	0.481924
0	C	0.604624	0.962355	0.993793
0	C	0.0762284	0.649626	0.994277
0	C	0.385513	0.42391	0.996758
0	C	0.603673	0.963403	0.600424
0	C	0.0749019	0.647953	0.600432
0	C	0.386316	0.423931	0.602924
0	C	0.440747	0.0618734	0.0903348
0	C	0.968525	0.374746	0.0898565
0	C	0.66032	0.599678	0.0881741
0	H	0.465038	0.102236	0.634866
0	H	0.928175	0.358435	0.634741
0	H	0.675789	0.578196	0.63383
0	H	0.58193	0.920022	0.143865
0	H	0.119244	0.669148	0.143845
0	H	0.366957	0.447298	0.146485
0	H	0.580127	0.921959	0.449246
0	H	0.116744	0.666032	0.449431
0	H	0.368444	0.447191	0.452143
0	H	0.463528	0.104173	0.940224
0	H	0.925451	0.355238	0.940374
0	H	0.679305	0.575918	0.939562
0	Cl	0.534345	0.239521	0.289636
0	Cl	0.7904	0.297867	0.290053
0	Cl	0.737819	0.503525	0.292035
0	Cl	0.510832	0.784712	0.794803
0	Cl	0.254421	0.726447	0.794332
0	Cl	0.307999	0.521339	0.799069
0	O	0.289202	0.803856	0.284471
0	O	0.228009	0.481463	0.282828
0	O	0.555415	0.749841	0.272685
0	O	0.755954	0.220385	0.80006
0	O	0.816732	0.542605	0.800829
0	O	0.489323	0.273876	0.803597
0	N	0.428325	0.78156	0.280522
0	N	0.253726	0.643744	0.28375
0	N	0.390479	0.609563	0.280384
0	N	0.61663	0.242414	0.800378
0	N	0.791175	0.380389	0.799817
0	N	0.654248	0.414348	0.800459
0	C	0.326649	0.743286	0.282596
0	C	0.290591	0.580979	0.282115
0	C	0.455281	0.710662	0.278073
0	C	0.718324	0.280804	0.800234
0	C	0.754211	0.443047	0.800415
0	C	0.589514	0.313196	0.801432
0	C	0.358311	0.908886	0.284969
0	C	0.12255	0.444094	0.284303
0	C	0.591617	0.682758	0.278826
0	C	0.68701	0.115313	0.79915
0	C	0.922262	0.580123	0.799639
0	C	0.453192	0.341084	0.801519
0	C	0.467332	0.11121	0.28762
0	C	0.919307	0.353639	0.287578
0	C	0.681451	0.573469	0.287004
0	C	0.577931	0.913013	0.796522
0	C	0.12553	0.670766	0.796649
0	C	0.363957	0.450968	0.799403
