#******************************************
#
# CIF file created by Zeo++
# Zeo++ is an open source package to
# analyze microporous materials
#
#*******************************************

_cell_length_a		17.6065(0)
_cell_length_b		13.4347(0)
_cell_length_c		26.7547(0)
_cell_angle_alpha		90(0)
_cell_angle_beta		90(0)
_cell_angle_gamma		90(0)

_symmetry_space_group_name_H-M		'P1'
_symmetry_Int_Tables_number		1
_symmetry_cell_setting		Monoclinic

loop_
_symmetry_equiv_pos_as_xyz
'+x,+y,+z'

loop_
_atom_site_label
_atom_site_type_symbol
_atom_site_fract_x
_atom_site_fract_y
_atom_site_fract_z
0	Cl	0.499271	0.0315089	0.235548
0	Cl	0.438496	0.776413	0.639825
0	Cl	0.986144	0.274682	0.172178
0	Cl	0.976292	0.583252	0.703097
0	Cl	0.702496	0.13414	0.360754
0	Cl	0.18253	0.792224	0.860176
0	Cl	0.274954	0.297781	0.356594
0	Cl	0.614482	0.598929	0.917069
0	O	0.64588	0.638341	0.308736
0	O	0.266557	0.289244	0.823957
0	O	0.169342	0.689082	0.308117
0	O	0.786172	0.165806	0.815921
0	O	0.566526	0.538593	0.371027
0	O	0.377095	0.438016	0.869766
0	O	0.120484	0.902809	0.342412
0	O	0.910209	0.994516	0.863809
0	O	0.946096	0.812725	0.56963
0	O	0.965957	0.134977	0.015915
0	O	0.417594	0.622621	0.55586
0	O	0.674292	0.396428	0.114704
0	O	0.875231	0.567977	0.549
0	O	0.0847225	0.289495	0.0400933
0	O	0.309945	0.856745	0.53333
0	O	0.612747	0.0529395	0.0428148
0	N	0.511856	0.636007	0.232529
0	N	0.383039	0.238982	0.740965
0	N	0.0423375	0.703832	0.22692
0	N	0.894145	0.168567	0.727101
0	N	0.565727	0.755323	0.343849
0	N	0.331149	0.154384	0.856969
0	N	0.0737508	0.604167	0.351333
0	N	0.880995	0.261702	0.8522
0	H	0.599523	0.776744	0.372724
0	H	0.238874	0.0972924	0.978184
0	H	0.0881315	0.625854	0.387455
0	H	0.723869	0.279821	0.935678
0	N	0.351537	0.476959	0.271599
0	N	0.561518	0.381437	0.75236
0	N	0.892369	0.9034	0.266886
0	N	0.0676084	0.0368387	0.725917
0	N	0.463073	0.639403	0.434675
0	N	0.483759	0.342519	0.934611
0	N	0.931024	0.834727	0.382666
0	N	0.0993912	0.0312117	0.861841
0	H	0.311731	0.640288	0.584477
0	H	0.604559	0.231577	0.00454285
0	H	0.883121	0.722309	0.488071
0	H	0.0198111	0.097644	0.951461
0	N	0.861829	0.690682	0.409682
0	N	0.114613	0.194289	0.898001
0	N	0.331614	0.712674	0.419748
0	N	0.553062	0.177392	0.93893
0	N	0.917614	0.0605595	0.589694
0	N	0.0283604	0.921335	0.0229636
0	N	0.377778	0.439673	0.511606
0	N	0.595218	0.503765	0.0288146
0	H	0.769985	0.820759	0.588283
0	H	0.0771832	0.047324	0.0592255
0	H	0.301706	0.451915	0.572615
0	H	0.750081	0.299205	0.0210581
0	N	0.658381	0.580434	0.451202
0	N	0.313688	0.308044	0.959126
0	N	0.0866526	0.739646	0.463663
0	N	0.811596	0.12744	0.934225
0	N	0.636808	0.657288	0.605475
0	N	0.308257	0.166794	0.103603
0	N	0.127959	0.682198	0.621546
0	N	0.85052	0.143539	0.0978266
0	H	0.583826	0.685263	0.609134
0	H	0.35307	0.122973	0.110802
0	H	0.0849701	0.637779	0.632901
0	H	0.905683	0.165183	0.100928
0	C	0.490492	0.52101	0.299383
0	C	0.429671	0.36186	0.796359
0	C	0.0283864	0.835353	0.286489
0	C	0.947079	0.0517637	0.783093
0	C	0.549502	0.470771	0.263315
0	C	0.367574	0.4146	0.762845
0	C	0.0858823	0.872283	0.245302
0	C	0.878256	0.997692	0.757601
0	H	0.607141	0.478408	0.281705
0	H	0.31918	0.43448	0.788739
0	H	0.142978	0.880114	0.264302
0	H	0.831385	0.994479	0.786229
0	C	0.548712	0.539542	0.216862
0	C	0.339236	0.331087	0.726889
0	C	0.0910532	0.786353	0.207041
0	C	0.853529	0.0718319	0.716171
0	H	0.606971	0.54886	0.201935
0	H	0.276661	0.322631	0.730685
0	H	0.151043	0.764404	0.200926
0	H	0.790907	0.0793919	0.715556
0	H	0.512817	0.508928	0.186305
0	H	0.35121	0.346586	0.687006
0	H	0.0671622	0.806722	0.169782
0	H	0.87191	0.048507	0.678129
0	C	0.505961	0.634905	0.288281
0	C	0.399355	0.251565	0.795317
0	C	0.0323925	0.719249	0.281303
0	C	0.91836	0.163244	0.780404
0	C	0.550857	0.725409	0.212272
0	C	0.343148	0.14518	0.728034
0	C	0.0671972	0.602851	0.211656
0	C	0.848587	0.25768	0.71403
0	H	0.522583	0.793056	0.226509
0	H	0.378289	0.0814282	0.739873
0	H	0.0282092	0.54696	0.227883
0	H	0.880754	0.32524	0.724049
0	H	0.544736	0.725528	0.171353
0	H	0.337227	0.141215	0.687058
0	H	0.0614147	0.597015	0.170586
0	H	0.84026	0.258365	0.673132
0	H	0.612653	0.730851	0.22143
0	H	0.285124	0.13632	0.744848
0	H	0.126163	0.583755	0.22148
0	H	0.791601	0.261602	0.732227
0	C	0.448538	0.708972	0.308092
0	C	0.450396	0.174466	0.818184
0	C	0.966557	0.65898	0.302496
0	C	0.981344	0.231383	0.797519
0	C	0.374607	0.722335	0.298412
0	C	0.523468	0.153586	0.809703
0	C	0.895074	0.658181	0.285041
0	C	0.0408898	0.265212	0.771998
0	H	0.343154	0.675318	0.272263
0	H	0.557946	0.192728	0.781879
0	H	0.877584	0.70124	0.252583
0	H	0.0476419	0.25028	0.732117
0	C	0.329555	0.805337	0.321357
0	C	0.563165	0.0722279	0.837248
0	C	0.833935	0.596009	0.308342
0	C	0.104808	0.319763	0.796537
0	H	0.317183	0.858858	0.290478
0	H	0.577293	0.0144775	0.808477
0	H	0.808245	0.548214	0.278783
0	H	0.127047	0.378402	0.771303
0	C	0.365038	0.86314	0.366091
0	C	0.520696	0.0235607	0.881926
0	C	0.859695	0.53057	0.35177
0	C	0.0864197	0.363777	0.84749
0	H	0.213398	0.859537	0.404713
0	H	0.664702	0.017024	0.90618
0	H	0.953675	0.456515	0.497359
0	H	0.152129	0.417205	0.938523
0	C	0.450504	0.849434	0.369112
0	C	0.436321	0.0417743	0.882423
0	C	0.940457	0.536049	0.370914
0	C	0.0137661	0.332181	0.875014
0	H	0.480452	0.899169	0.394388
0	H	0.401892	0.995987	0.907254
0	H	0.965522	0.469719	0.388543
0	H	0.981569	0.388596	0.895589
0	C	0.486472	0.777899	0.343335
0	C	0.406391	0.115954	0.855292
0	C	0.991835	0.600223	0.344372
0	C	0.966057	0.250377	0.852629
0	C	0.581999	0.669042	0.314779
0	C	0.323371	0.238938	0.826756
0	C	0.102441	0.680034	0.31145
0	C	0.852394	0.190802	0.817977
0	C	0.412618	0.496094	0.284073
0	C	0.504208	0.371557	0.772774
0	C	0.952026	0.871861	0.2755
0	C	0.0152986	0.0430074	0.751829
0	C	0.502606	0.492533	0.353922
0	C	0.431286	0.398492	0.850531
0	C	0.0531877	0.876299	0.339262
0	C	0.96319	0.00881668	0.835821
0	C	0.458309	0.431109	0.380841
0	C	0.503787	0.390997	0.883421
0	C	0.00194512	0.884522	0.378317
0	C	0.0407968	0.974799	0.847874
0	C	0.459389	0.418063	0.435194
0	C	0.511723	0.409826	0.97547
0	C	0.91798	0.040664	0.500268
0	C	0.965316	0.822824	0.959261
0	C	0.519602	0.393765	0.464527
0	C	0.4501	0.465104	0.995974
0	C	0.994249	0.0315405	0.491271
0	C	0.885022	0.824056	0.971797
0	H	0.575905	0.379551	0.449103
0	H	0.391688	0.449695	0.983078
0	H	0.0212614	0.0188084	0.455236
0	H	0.860029	0.749339	0.977229
0	C	0.509577	0.387316	0.517909
0	C	0.461355	0.538464	0.0314376
0	C	0.034077	0.0393027	0.537602
0	C	0.887194	0.882782	0.0217259
0	H	0.557807	0.363192	0.540363
0	H	0.413793	0.580627	0.0469259
0	H	0.0957971	0.0334719	0.537236
0	H	0.83233	0.88581	0.0404299
0	C	0.44262	0.413031	0.53992
0	C	0.536438	0.555914	0.0473942
0	C	0.99647	0.0531064	0.583976
0	C	0.948594	0.927022	0.0424121
0	H	0.435353	0.412824	0.580518
0	H	0.550124	0.612279	0.0758666
0	H	0.0283545	0.0584092	0.61924
0	H	0.946104	0.968087	0.0774887
0	C	0.318624	0.50021	0.539843
0	C	0.702281	0.349875	0.0269509
0	C	0.807424	0.828123	0.555571
0	C	0.0688366	0.0203684	0.0196256
0	C	0.384766	0.437057	0.458131
0	C	0.585685	0.432082	0.992597
0	C	0.890854	0.0538937	0.543667
0	C	0.0173832	0.870052	0.978471
0	C	0.320409	0.443098	0.431562
0	C	0.575793	0.359315	0.863295
0	C	0.75616	0.923879	0.39494
0	C	0.166909	0.99086	0.875418
0	H	0.161743	0.464733	0.322093
0	H	0.691266	0.295337	0.779312
0	H	0.737542	0.759345	0.235876
0	H	0.185116	0.157648	0.783529
0	C	0.534921	0.361861	0.254602
0	C	0.391772	0.505943	0.734515
0	C	0.0648256	0.972907	0.224509
0	C	0.898427	0.893754	0.741645
0	C	0.507379	0.324192	0.209239
0	C	0.437316	0.498687	0.691506
0	C	0.039638	0.986252	0.175248
0	C	0.931568	0.874119	0.695018
0	H	0.493913	0.374802	0.178578
0	H	0.460697	0.426731	0.68017
0	H	0.0363001	0.922476	0.149806
0	H	0.940194	0.935095	0.66844
0	C	0.496582	0.221795	0.202765
0	C	0.452996	0.582588	0.66266
0	C	0.0178505	0.0803564	0.158206
0	C	0.955175	0.777948	0.682723
0	H	0.476255	0.192566	0.167306
0	H	0.48721	0.57642	0.628722
0	H	0.9998	0.0910964	0.11957
0	H	0.981949	0.76349	0.646702
0	C	0.512996	0.158131	0.242477
0	C	0.422524	0.674162	0.677214
0	C	0.02029	0.160228	0.191454
0	C	0.944612	0.701897	0.71751
0	C	0.540153	0.193377	0.288222
0	C	0.378323	0.683961	0.720228
0	C	0.0476116	0.150064	0.240204
0	C	0.910244	0.718604	0.763783
0	H	0.553156	0.142067	0.318645
0	H	0.354586	0.756142	0.730793
0	H	0.050991	0.214254	0.264983
0	H	0.902057	0.657705	0.790129
0	C	0.551048	0.295454	0.293894
0	C	0.36326	0.599244	0.748898
0	C	0.0703953	0.0560123	0.256383
0	C	0.887355	0.815266	0.775683
0	H	0.572843	0.323874	0.329567
0	H	0.327747	0.606204	0.782227
0	H	0.0923223	0.046327	0.294442
0	H	0.861792	0.830262	0.812125
0	C	0.832991	0.708741	0.46271
0	C	0.150123	0.172056	0.943559
0	C	0.275189	0.680921	0.455961
0	C	0.623665	0.210369	0.965428
0	C	0.798992	0.605755	0.478666
0	C	0.16854	0.266133	0.970956
0	C	0.232046	0.772426	0.474676
0	C	0.675012	0.115292	0.971619
0	C	0.842986	0.528319	0.447039
0	C	0.120045	0.347661	0.944635
0	C	0.254867	0.855187	0.436159
0	C	0.634684	0.031842	0.941988
0	H	0.991005	0.444443	0.483784
0	H	0.070811	0.367975	0.968827
0	H	0.255266	0.929772	0.453708
0	H	0.636045	0.960311	0.962773
0	C	0.873122	0.581051	0.404478
0	C	0.0920217	0.301498	0.896104
0	C	0.334757	0.825907	0.418268
0	C	0.552287	0.0650307	0.933152
0	H	0.786366	0.644821	0.321103
0	H	0.152739	0.264047	0.800927
0	H	0.272927	0.77558	0.332767
0	H	0.619852	0.10009	0.84974
0	H	0.986461	0.710052	0.413635
0	H	0.977634	0.180082	0.875042
0	H	0.375918	0.854027	0.447494
0	H	0.515388	0.03654	0.964517
0	C	0.931816	0.745191	0.402457
0	C	0.0914554	0.134946	0.862954
0	C	0.402589	0.671336	0.428794
0	C	0.494323	0.231976	0.928357
0	H	0.882513	0.871034	0.371294
0	H	0.850532	0.864721	0.943638
0	H	0.565498	0.54865	0.409164
0	H	0.420936	0.343652	0.938029
0	H	0.69555	0.745028	0.233092
0	H	0.210582	0.120493	0.769345
0	H	0.198565	0.46299	0.306563
0	H	0.715799	0.272838	0.758498
0	H	0.019085	0.928262	0.410788
0	H	0.0468439	0.893361	0.848001
0	H	0.411041	0.391652	0.362612
0	H	0.515181	0.47475	0.890448
0	C	0.780136	0.796575	0.465291
0	C	0.183362	0.0755602	0.958844
0	C	0.260155	0.584375	0.4643
0	C	0.662091	0.301005	0.941543
0	C	0.740659	0.825208	0.418734
0	C	0.207293	0.00453303	0.91629
0	C	0.258408	0.496303	0.429208
0	C	0.640986	0.344931	0.891282
0	H	0.728354	0.761125	0.394056
0	H	0.288249	0.124764	0.878321
0	H	0.1001	0.534076	0.345132
0	H	0.854539	0.273499	0.885321
0	C	0.681878	0.911866	0.421507
0	C	0.266841	0.935807	0.934
0	C	0.1783	0.464411	0.423511
0	C	0.692678	0.414449	0.87305
0	H	0.62966	0.907051	0.399121
0	H	0.311867	0.914253	0.90862
0	H	0.158546	0.441918	0.386723
0	H	0.695443	0.435831	0.833544
0	C	0.671115	0.95791	0.470956
0	C	0.256723	0.898146	0.980362
0	C	0.137869	0.460117	0.466504
0	C	0.73655	0.470886	0.909607
0	H	0.627498	0.0153913	0.473348
0	H	0.295262	0.84508	0.997326
0	H	0.077438	0.440817	0.469134
0	H	0.779832	0.521908	0.895414
0	C	0.713093	0.930126	0.510642
0	C	0.187769	0.923976	0.00850194
0	C	0.181546	0.471726	0.513335
0	C	0.718506	0.466894	0.958571
0	H	0.70637	0.966459	0.546885
0	H	0.169476	0.870697	0.0366974
0	H	0.164706	0.426181	0.54495
0	H	0.743178	0.517272	0.986246
0	C	0.769014	0.849276	0.508239
0	C	0.145825	0.0052289	0.996365
0	C	0.246779	0.525132	0.510743
0	C	0.664614	0.387964	0.980199
0	C	0.881188	0.820592	0.562611
0	C	0.0151085	0.0927118	0.992175
0	C	0.352689	0.597077	0.561855
0	C	0.687147	0.377542	0.0733275
0	C	0.720472	0.592572	0.46369
0	C	0.249881	0.290645	0.964797
0	C	0.150668	0.754744	0.469486
0	C	0.751454	0.123411	0.951362
0	C	0.811481	0.590503	0.535733
0	C	0.147768	0.262584	0.027525
0	C	0.255581	0.801962	0.529118
0	C	0.673561	0.0868095	0.0289813
0	C	0.748521	0.607517	0.569767
0	C	0.205552	0.23341	0.0638086
0	C	0.212132	0.763455	0.570908
0	C	0.737311	0.102601	0.0613824
0	C	0.747869	0.573378	0.621202
0	C	0.205545	0.269343	0.114863
0	C	0.220742	0.801961	0.621367
0	C	0.733514	0.076537	0.114253
0	C	0.800514	0.521512	0.650982
0	C	0.157044	0.333064	0.141779
0	C	0.26836	0.87443	0.64287
0	C	0.677076	0.0325658	0.14417
0	H	0.855195	0.499945	0.635029
0	H	0.107402	0.364413	0.123047
0	H	0.310528	0.911722	0.619504
0	H	0.622837	0.0119832	0.127452
0	C	0.781214	0.500405	0.700029
0	C	0.17394	0.352387	0.191356
0	C	0.259729	0.895568	0.693197
0	C	0.692722	0.0165001	0.194265
0	H	0.821459	0.461065	0.723921
0	H	0.136852	0.400353	0.213202
0	H	0.295197	0.952051	0.710735
0	H	0.650221	0.981711	0.218222
0	C	0.709901	0.528585	0.720247
0	C	0.238885	0.310634	0.214825
0	C	0.204724	0.846265	0.723122
0	C	0.763264	0.0442077	0.215732
0	H	0.696312	0.507132	0.758474
0	H	0.250621	0.329654	0.253808
0	H	0.198878	0.867934	0.76241
0	H	0.773063	0.0293909	0.255402
0	C	0.657008	0.580649	0.69221
0	C	0.287907	0.24795	0.189393
0	C	0.15806	0.773226	0.703403
0	C	0.819991	0.0879232	0.187365
0	H	0.602095	0.601702	0.7074
0	H	0.33769	0.216252	0.207371
0	H	0.115807	0.735098	0.72606
0	H	0.874317	0.108853	0.203642
0	C	0.676957	0.603576	0.642632
0	C	0.270366	0.227096	0.139154
0	C	0.16679	0.751518	0.652261
0	C	0.804612	0.103035	0.13637
0	C	0.680157	0.658922	0.562148
0	C	0.268094	0.170574	0.0587377
0	C	0.154969	0.690705	0.573111
0	C	0.810686	0.14165	0.053549
0	H	0.660749	0.698761	0.529276
0	H	0.284914	0.127881	0.0259432
0	H	0.133043	0.643734	0.543524
0	H	0.83835	0.167672	0.0196497
0	C	0.819441	0.432098	0.352387
0	C	0.110597	0.470737	0.850426
0	C	0.344519	0.973816	0.362002
0	C	0.536535	0.911232	0.88505
0	C	0.741056	0.427337	0.361837
0	C	0.18791	0.494756	0.855185
0	C	0.270187	0.00148602	0.34883
0	C	0.590519	0.864837	0.854313
0	H	0.707808	0.495641	0.366687
0	H	0.230308	0.435017	0.856916
0	H	0.227398	0.94448	0.340297
0	H	0.616799	0.905495	0.823293
0	C	0.704569	0.335211	0.364434
0	C	0.2109	0.594141	0.857897
0	C	0.248312	0.101159	0.346737
0	C	0.612738	0.766569	0.862771
0	H	0.643705	0.331246	0.372327
0	H	0.270664	0.612696	0.862487
0	H	0.190165	0.120959	0.336984
0	H	0.655886	0.731543	0.839358
0	C	0.746837	0.248846	0.356191
0	C	0.156049	0.669245	0.855384
0	C	0.302184	0.174269	0.357548
0	C	0.579375	0.715405	0.902388
0	C	0.823978	0.251818	0.344391
0	C	0.0790077	0.646702	0.849584
0	C	0.376929	0.149784	0.369636
0	C	0.521807	0.756449	0.931633
0	H	0.855356	0.183402	0.336986
0	H	0.0370242	0.706197	0.847547
0	H	0.418476	0.207853	0.377538
0	H	0.494971	0.713583	0.961331
0	C	0.860111	0.344365	0.342523
0	C	0.056499	0.547143	0.847043
0	C	0.397558	0.0493132	0.371781
0	C	0.500399	0.854746	0.922447
0	H	0.920271	0.348004	0.333133
0	H	0.996655	0.52877	0.84224
0	H	0.456119	0.0305462	0.381237
0	H	0.455507	0.887906	0.945198
