#******************************************
#
# CIF file created by Zeo++
# Zeo++ is an open source package to
# analyze microporous materials
#
#*******************************************

_cell_length_a		13.369(0)
_cell_length_b		21.936(0)
_cell_length_c		13.6316(0)
_cell_angle_alpha		90(0)
_cell_angle_beta		100.11(0)
_cell_angle_gamma		90(0)

_symmetry_space_group_name_H-M		'P1'
_symmetry_Int_Tables_number		1
_symmetry_cell_setting		Monoclinic

loop_
_symmetry_equiv_pos_as_xyz
'+x,+y,+z'

loop_
_atom_site_label
_atom_site_type_symbol
_atom_site_fract_x
_atom_site_fract_y
_atom_site_fract_z
0	C	0.19922	0.927431	0.449731
0	C	0.810503	0.427793	0.0541747
0	C	0.813756	0.0714336	0.555354
0	C	0.206545	0.571074	0.953268
0	H	0.229555	0.883247	0.42948
0	H	0.777687	0.383924	0.0724208
0	H	0.783148	0.115558	0.575548
0	H	0.239626	0.614865	0.935039
0	H	0.12335	0.918694	0.467105
0	H	0.887319	0.418358	0.0396673
0	H	0.889336	0.0804098	0.537422
0	H	0.130096	0.580784	0.96853
0	H	0.24838	0.942198	0.518821
0	H	0.764323	0.44357	0.984052
0	H	0.764359	0.0563693	0.486595
0	H	0.253094	0.554944	0.0229572
0	C	0.196453	0.973486	0.368814
0	C	0.811734	0.473402	0.135525
0	C	0.817535	0.0255588	0.636677
0	C	0.204013	0.525665	0.871434
0	C	0.16218	0.0317832	0.372883
0	C	0.846797	0.53152	0.132625
0	C	0.852292	0.967361	0.63287
0	C	0.16839	0.467673	0.874113
0	C	0.126306	0.0580527	0.459567
0	C	0.886243	0.55758	0.0477646
0	C	0.888244	0.941067	0.546246
0	C	0.128917	0.441594	0.958936
0	H	0.123181	0.0274538	0.522145
0	H	0.892507	0.526783	0.986204
0	H	0.891259	0.971627	0.483594
0	H	0.122709	0.472375	0.0205479
0	C	0.0997234	0.117242	0.463795
0	C	0.912697	0.616792	0.0440721
0	C	0.915001	0.881903	0.542162
0	C	0.102349	0.382384	0.962513
0	H	0.0759558	0.135836	0.530396
0	H	0.939087	0.635232	0.978755
0	H	0.938791	0.863283	0.475595
0	H	0.0759365	0.363911	0.027801
0	C	0.101757	0.159676	0.380914
0	C	0.907275	0.659381	0.12598
0	C	0.913085	0.839518	0.625132
0	C	0.107616	0.339859	0.880497
0	C	0.130403	0.132264	0.291556
0	C	0.875757	0.632082	0.214012
0	C	0.884485	0.866989	0.714472
0	C	0.138748	0.367253	0.792339
0	H	0.129871	0.162117	0.227157
0	H	0.87374	0.662051	0.277708
0	H	0.885134	0.837168	0.778947
0	H	0.140393	0.33737	0.728479
0	C	0.159251	0.0736774	0.288125
0	C	0.84706	0.573461	0.21686
0	C	0.855527	0.925556	0.71779
0	C	0.167523	0.425865	0.789583
0	H	0.182264	0.0555766	0.2208
0	H	0.821773	0.555402	0.283023
0	H	0.83253	0.943701	0.785101
0	H	0.192469	0.444006	0.723309
0	C	0.0814325	0.22074	0.384453
0	C	0.927416	0.720455	0.122651
0	C	0.933406	0.778444	0.621672
0	C	0.087633	0.278759	0.883809
0	C	0.0611355	0.252787	0.473507
0	C	0.950069	0.752268	0.0343424
0	C	0.953682	0.746383	0.532635
0	C	0.0650931	0.246912	0.972136
0	H	0.0451389	0.224593	0.534822
0	H	0.967821	0.723981	0.973888
0	H	0.969618	0.774552	0.471254
0	H	0.0473892	0.275179	0.0326346
0	C	0.0634658	0.314161	0.480387
0	C	0.947683	0.81363	0.0270817
0	C	0.951411	0.684997	0.525821
0	C	0.0674668	0.185555	0.979342
0	H	0.0491249	0.337451	0.547132
0	H	0.964087	0.836708	0.960975
0	H	0.965742	0.66169	0.45907
0	H	0.0510969	0.162451	0.0454293
0	C	0.0866559	0.352845	0.399219
0	C	0.922133	0.852489	0.107004
0	C	0.928264	0.646328	0.60702
0	C	0.09288	0.146729	0.899336
0	C	0.0823396	0.321193	0.30339
0	C	0.92402	0.821029	0.202621
0	C	0.932501	0.678015	0.702811
0	C	0.0910005	0.178212	0.803759
0	H	0.0822252	0.349344	0.237375
0	H	0.922538	0.849339	0.268108
0	H	0.932581	0.649884	0.768819
0	H	0.0924632	0.14993	0.738236
0	C	0.0809372	0.260015	0.297
0	C	0.925412	0.759869	0.209441
0	C	0.933867	0.739201	0.709145
0	C	0.0896069	0.23938	0.79699
0	H	0.080235	0.237214	0.225554
0	H	0.924207	0.737294	0.280658
0	H	0.934482	0.76202	0.780545
0	H	0.0907902	0.261975	0.725767
0	C	0.114289	0.412471	0.410635
0	C	0.895092	0.912161	0.0946048
0	C	0.900726	0.58669	0.595658
0	C	0.11979	0.0870112	0.911633
0	C	0.121671	0.446551	0.506402
0	C	0.890698	0.945756	0.998737
0	C	0.893335	0.552601	0.499898
0	C	0.124053	0.0533608	0.00741298
0	H	0.180339	0.426408	0.564279
0	H	0.835892	0.924474	0.938502
0	H	0.834523	0.572671	0.44209
0	H	0.178867	0.0745701	0.0677379
0	H	0.0497298	0.446138	0.534837
0	H	0.964746	0.946601	0.974307
0	H	0.965196	0.553118	0.471339
0	H	0.0499692	0.0525564	0.0317769
0	H	0.143528	0.494451	0.499094
0	H	0.865518	0.993131	0.00407013
0	H	0.871667	0.504677	0.507255
0	H	0.149127	0.00597008	0.00201172
0	C	0.0695133	0.496202	0.283455
0	C	0.938068	0.996755	0.220338
0	C	0.945525	0.502978	0.722876
0	C	0.0766295	0.00250261	0.785803
0	H	0.0338204	0.486676	0.205898
0	H	0.974368	0.98721	0.297727
0	H	0.981414	0.512612	0.800343
0	H	0.040532	0.0119934	0.708333
0	H	0.10844	0.54044	0.28392
0	H	0.898694	0.0408634	0.220299
0	H	0.90658	0.458764	0.72268
0	H	0.115857	0.958331	0.786055
0	H	0.00701461	0.502315	0.325156
0	H	0.999975	0.00337648	0.177979
0	H	0.00785625	0.496762	0.680989
0	H	0.0145467	0.996019	0.827993
0	C	0.141765	0.447142	0.32551
0	C	0.866342	0.9473	0.178713
0	C	0.873232	0.552022	0.680795
0	C	0.148456	0.0519036	0.827477
0	C	0.226746	0.432765	0.288236
0	C	0.781387	0.932881	0.216034
0	C	0.788265	0.566382	0.718034
0	C	0.233421	0.0662792	0.790141
0	C	0.303515	0.39081	0.340932
0	C	0.704726	0.890696	0.163735
0	C	0.711502	0.608367	0.665362
0	C	0.310188	0.108388	0.842498
0	H	0.294088	0.375792	0.415125
0	H	0.714504	0.875272	0.0898435
0	H	0.720901	0.623354	0.591138
0	H	0.300495	0.123765	0.916432
0	C	0.383347	0.372095	0.300999
0	C	0.624645	0.872269	0.203562
0	C	0.631707	0.627117	0.705312
0	C	0.390254	0.126807	0.802637
0	H	0.440386	0.341749	0.3428
0	H	0.56767	0.841721	0.162002
0	H	0.574679	0.657465	0.663505
0	H	0.44732	0.157294	0.844234
0	C	0.398243	0.390253	0.200893
0	C	0.609478	0.890868	0.303431
0	C	0.616811	0.608957	0.805417
0	C	0.405319	0.108281	0.702696
0	C	0.324258	0.434318	0.150459
0	C	0.683921	0.934701	0.353981
0	C	0.690696	0.564821	0.85579
0	C	0.330811	0.0644687	0.652163
0	H	0.334493	0.449542	0.0765774
0	H	0.674005	0.94993	0.427987
0	H	0.680391	0.549537	0.929612
0	H	0.340701	0.0492469	0.578143
0	C	0.246979	0.455633	0.192427
0	C	0.761275	0.95583	0.311903
0	C	0.767921	0.54346	0.813785
0	C	0.253456	0.04336	0.69423
0	H	0.194078	0.489455	0.154356
0	H	0.81448	0.989493	0.349972
0	H	0.820692	0.50954	0.851739
0	H	0.20023	0.00972364	0.65615
0	C	0.476756	0.367016	0.160112
0	C	0.53056	0.86797	0.344042
0	C	0.538286	0.632202	0.846187
0	C	0.484147	0.131208	0.662037
0	C	0.552218	0.326656	0.21842
0	C	0.454396	0.828027	0.285659
0	C	0.462873	0.672588	0.787905
0	C	0.560346	0.171144	0.720415
0	H	0.548973	0.3216	0.297669
0	H	0.456778	0.823594	0.206096
0	H	0.466129	0.677666	0.708652
0	H	0.558003	0.175573	0.799982
0	C	0.623319	0.297363	0.177971
0	C	0.383612	0.798548	0.326276
0	C	0.391739	0.701864	0.828357
0	C	0.631112	0.20064	0.679753
0	H	0.678555	0.268011	0.223894
0	H	0.327818	0.76952	0.280364
0	H	0.336481	0.7312	0.782423
0	H	0.686897	0.229669	0.72567
0	C	0.630575	0.303175	0.0718703
0	C	0.377738	0.803655	0.43276
0	C	0.384466	0.696023	0.934435
0	C	0.636963	0.195522	0.573284
0	C	0.56459	0.350083	0.0174088
0	C	0.443841	0.85047	0.487322
0	C	0.450426	0.649103	0.988875
0	C	0.570766	0.148761	0.518714
0	H	0.574512	0.359448	0.941145
0	H	0.434583	0.859407	0.563894
0	H	0.440484	0.639699	0.0651167
0	H	0.579939	0.139854	0.442106
0	C	0.49286	0.379242	0.0581244
0	C	0.514838	0.880043	0.446196
0	C	0.522115	0.61991	0.94812
0	C	0.499779	0.119197	0.559822
0	H	0.442857	0.412911	0.0154414
0	H	0.56455	0.91387	0.488661
0	H	0.571994	0.58616	0.990742
0	H	0.450006	0.0854002	0.517351
0	C	0.711227	0.270236	0.926088
0	C	0.301543	0.769543	0.580243
0	C	0.30369	0.728844	0.080211
0	C	0.713355	0.229507	0.425839
0	H	0.762975	0.23455	0.908449
0	H	0.250373	0.733927	0.599062
0	H	0.251719	0.76441	0.0978058
0	H	0.764641	0.265071	0.407035
0	H	0.745235	0.314353	0.912003
0	H	0.26877	0.813661	0.596387
0	H	0.269953	0.684656	0.0943514
0	H	0.746029	0.185351	0.409738
0	H	0.639941	0.26635	0.8718
0	H	0.374177	0.765083	0.632377
0	H	0.374958	0.732885	0.134492
0	H	0.640767	0.234018	0.373651
0	C	0.692904	0.265745	0.0304357
0	C	0.316575	0.765746	0.474743
0	C	0.321979	0.733377	0.975869
0	C	0.69825	0.233362	0.531304
0	C	0.746436	0.216781	0.0949172
0	C	0.262346	0.717021	0.410285
0	C	0.268313	0.782279	0.911353
0	C	0.752596	0.282048	0.59577
0	C	0.849974	0.232903	0.149265
0	C	0.158607	0.733091	0.356363
0	C	0.164812	0.766045	0.857033
0	C	0.85631	0.265922	0.649677
0	H	0.903299	0.194829	0.148598
0	H	0.105357	0.694993	0.357459
0	H	0.111281	0.803988	0.857989
0	H	0.909633	0.303977	0.648547
0	H	0.8498	0.244458	0.227791
0	H	0.158615	0.744374	0.277673
0	H	0.164928	0.754705	0.778409
0	H	0.856291	0.254667	0.728375
0	H	0.881409	0.272474	0.115693
0	H	0.126946	0.772706	0.389555
0	H	0.133622	0.726301	0.890388
0	H	0.887863	0.226264	0.61651
0	C	0.697283	0.164191	0.109645
0	C	0.31106	0.664422	0.394729
0	C	0.317323	0.834906	0.896588
0	C	0.703898	0.334653	0.611373
0	C	0.606466	0.143699	0.0406808
0	C	0.402316	0.643888	0.463001
0	C	0.408087	0.85549	0.965558
0	C	0.612608	0.355176	0.543153
0	H	0.590804	0.166085	0.968235
0	H	0.419189	0.666601	0.535115
0	H	0.423763	0.833162	0.0380291
0	H	0.595695	0.332458	0.471039
0	C	0.546583	0.0984961	0.0640934
0	C	0.461233	0.598317	0.43918
0	C	0.467924	0.900689	0.942055
0	C	0.553673	0.400723	0.567023
0	H	0.480923	0.0826788	0.0107496
0	H	0.527033	0.582324	0.492132
0	H	0.533557	0.916584	0.99537
0	H	0.487791	0.416658	0.514138
0	C	0.562549	0.0714728	0.163961
0	C	0.444084	0.571227	0.339292
0	C	0.451921	0.927635	0.842125
0	C	0.57096	0.427875	0.666874
0	C	0.65863	0.0875589	0.228429
0	C	0.347696	0.587505	0.275512
0	C	0.355856	0.911483	0.777688
0	C	0.667411	0.411618	0.730582
0	H	0.676345	0.0635966	0.299473
0	H	0.329119	0.563314	0.204684
0	H	0.338119	0.935391	0.70659
0	H	0.686054	0.435833	0.801389
0	C	0.725595	0.126798	0.199571
0	C	0.28148	0.627055	0.304916
0	C	0.288939	0.87223	0.806593
0	C	0.733542	0.372029	0.701172
0	H	0.8001	0.13461	0.244603
0	H	0.206685	0.634985	0.260424
0	H	0.214456	0.864369	0.761595
0	H	0.808361	0.364062	0.745644
0	C	0.491261	0.0341048	0.193748
0	C	0.514963	0.5337	0.309019
0	C	0.523173	0.965018	0.812236
0	C	0.500119	0.465393	0.697207
0	C	0.483414	0.0261004	0.298885
0	C	0.522935	0.525836	0.203822
0	C	0.530889	0.972979	0.707058
0	C	0.492415	0.473368	0.802451
0	H	0.544692	0.0446989	0.354071
0	H	0.461679	0.544477	0.148543
0	H	0.469545	0.954349	0.651949
0	H	0.55378	0.454757	0.85764
0	C	0.401524	0.999487	0.326118
0	C	0.604954	0.499339	0.176671
0	C	0.612695	0.999623	0.679712
0	C	0.410494	0.49988	0.829749
0	H	0.393117	0.996529	0.404047
0	H	0.613525	0.496426	0.0987486
0	H	0.620994	0.00257688	0.601765
0	H	0.402103	0.502865	0.907715
0	C	0.321293	0.970675	0.25335
0	C	0.685077	0.470529	0.249593
0	C	0.692973	0.0284479	0.752408
0	C	0.330192	0.528609	0.75692
0	C	0.34293	0.96623	0.151597
0	C	0.663342	0.465887	0.35131
0	C	0.671482	0.0329267	0.854202
0	C	0.351633	0.53315	0.655083
0	H	0.294275	0.936701	0.0993018
0	H	0.711906	0.436352	0.403729
0	H	0.720174	0.0624678	0.906425
0	H	0.302913	0.562609	0.60266
0	C	0.4172	0.99965	0.122672
0	C	0.588892	0.499191	0.380134
0	C	0.597256	0.999527	0.88323
0	C	0.425976	0.499792	0.626141
0	H	0.427612	0.999457	0.0449483
0	H	0.578145	0.498957	0.457803
0	H	0.586878	0.99975	0.960969
0	H	0.436445	0.499925	0.548384
0	C	0.231425	0.952125	0.276953
0	C	0.775127	0.451975	0.226469
0	C	0.782767	0.0469705	0.72862
0	C	0.240194	0.547109	0.780249
0	C	0.157994	0.912244	0.210793
0	C	0.848077	0.412087	0.293205
0	C	0.856372	0.0868286	0.794642
0	C	0.16693	0.586844	0.713578
0	H	0.0922355	0.899364	0.244713
0	H	0.914118	0.398947	0.259894
0	H	0.921893	0.0998432	0.760442
0	H	0.100882	0.599812	0.746996
0	H	0.194803	0.869568	0.19387
0	H	0.810844	0.369537	0.310053
0	H	0.819554	0.129442	0.811929
0	H	0.203876	0.629477	0.696631
0	H	0.127478	0.934391	0.139541
0	H	0.878081	0.43436	0.364526
0	H	0.887258	0.0645858	0.865735
0	H	0.136962	0.564494	0.642325
