#******************************************
#
# CIF file created by Zeo++
# Zeo++ is an open source package to
# analyze microporous materials
#
#*******************************************

_cell_length_a		14.9448(0)
_cell_length_b		13.5363(0)
_cell_length_c		15.0499(0)
_cell_angle_alpha		90(0)
_cell_angle_beta		101.336(0)
_cell_angle_gamma		90(0)

_symmetry_space_group_name_H-M		'P1'
_symmetry_Int_Tables_number		1
_symmetry_cell_setting		Monoclinic

loop_
_symmetry_equiv_pos_as_xyz
'+x,+y,+z'

loop_
_atom_site_label
_atom_site_type_symbol
_atom_site_fract_x
_atom_site_fract_y
_atom_site_fract_z
0	B	0.119392	0.572416	0.325944
0	B	0.362969	0.0720145	0.172906
0	B	0.854578	0.442491	0.671806
0	B	0.611073	0.942751	0.824889
0	N	0.134034	0.551021	0.225225
0	N	0.349668	0.0498702	0.273839
0	N	0.839935	0.463821	0.772509
0	N	0.624372	0.964826	0.723912
0	C	0.115431	0.459913	0.361036
0	C	0.366581	0.959822	0.137064
0	C	0.85853	0.55501	0.636767
0	C	0.60749	0.0549623	0.860701
0	C	0.105217	0.421024	0.443998
0	C	0.374992	0.921762	0.0532918
0	C	0.868744	0.593951	0.553822
0	C	0.599138	0.0930871	0.944471
0	H	0.0932594	0.46977	0.498364
0	H	0.385233	0.971056	0.998674
0	H	0.880729	0.545244	0.499445
0	H	0.588972	0.043839	0.999139
0	C	0.110497	0.318801	0.4573
0	C	0.369994	0.819599	0.0395608
0	C	0.863397	0.696176	0.540548
0	C	0.604101	0.195266	0.958121
0	H	0.102128	0.288234	0.522429
0	H	0.376647	0.789566	0.97371
0	H	0.871756	0.726777	0.475425
0	H	0.597493	0.225361	0.0239617
0	C	0.126652	0.25511	0.388485
0	C	0.356218	0.755214	0.108812
0	C	0.847144	0.759821	0.609362
0	C	0.617743	0.259592	0.888769
0	H	0.13097	0.175924	0.40067
0	H	0.352506	0.676066	0.0964059
0	H	0.842756	0.839006	0.597184
0	H	0.621406	0.338755	0.901109
0	C	0.137462	0.29304	0.304982
0	C	0.346981	0.792394	0.193053
0	C	0.836305	0.721835	0.692833
0	C	0.626894	0.222352	0.804529
0	H	0.149222	0.244169	0.250801
0	H	0.336735	0.743007	0.247443
0	H	0.824439	0.770668	0.747001
0	H	0.637009	0.271691	0.750053
0	C	0.131904	0.395248	0.291866
0	C	0.35192	0.89456	0.206528
0	C	0.841961	0.619627	0.70594
0	C	0.622043	0.120171	0.791156
0	C	0.13887	0.450258	0.210069
0	C	0.345199	0.949015	0.288677
0	C	0.834986	0.564565	0.787709
0	C	0.628746	0.0656761	0.709036
0	C	0.146645	0.415024	0.124408
0	C	0.336721	0.913394	0.373995
0	C	0.827088	0.599728	0.87336
0	C	0.637122	0.101277	0.623668
0	H	0.152471	0.335316	0.113427
0	H	0.331472	0.833588	0.384753
0	H	0.821183	0.67942	0.884374
0	H	0.642276	0.181082	0.612865
0	C	0.145499	0.481707	0.0537977
0	C	0.335755	0.979865	0.444346
0	C	0.828203	0.53298	0.943913
0	C	0.638093	0.0347847	0.553351
0	H	0.150333	0.454078	0.986532
0	H	0.32967	0.952031	0.51122
0	H	0.823264	0.560553	0.011171
0	H	0.644079	0.0625849	0.486435
0	C	0.137047	0.584004	0.0683789
0	C	0.343197	0.0823091	0.429906
0	C	0.836779	0.4307	0.929314
0	C	0.63079	0.932337	0.56787
0	C	0.133028	0.616326	0.1567
0	C	0.349009	0.114998	0.342142
0	C	0.84087	0.398449	0.840994
0	C	0.62506	0.899673	0.655679
0	H	0.128469	0.695673	0.172542
0	H	0.353252	0.194412	0.326375
0	H	0.845479	0.31912	0.825103
0	H	0.620901	0.820256	0.671457
0	C	0.128706	0.652597	0.991921
0	C	0.347518	0.150852	0.505859
0	C	0.845075	0.36206	0.00572079
0	C	0.626461	0.863788	0.491928
0	H	0.122903	0.61695	0.925631
0	H	0.350348	0.115222	0.571777
0	H	0.85086	0.397668	0.0720291
0	H	0.623483	0.899417	0.425987
0	C	0.126059	0.751607	0.998176
0	C	0.34945	0.249891	0.499598
0	C	0.847766	0.263054	0.999428
0	C	0.624656	0.764743	0.498183
0	H	0.134934	0.788556	0.0641946
0	H	0.343631	0.286952	0.433922
0	H	0.838886	0.226162	0.933384
0	H	0.630622	0.727633	0.563847
0	C	0.111602	0.819352	0.920273
0	C	0.3589	0.317279	0.577494
0	C	0.862278	0.195243	0.077271
0	C	0.615106	0.697431	0.420224
0	C	0.0618538	0.791036	0.834842
0	C	0.404688	0.288686	0.664407
0	C	0.911936	0.223589	0.162772
0	C	0.569361	0.726197	0.33333
0	H	0.0329741	0.717053	0.82456
0	H	0.434361	0.215109	0.675549
0	H	0.940653	0.297637	0.173112
0	H	0.539823	0.799843	0.322295
0	C	0.0479465	0.857954	0.762707
0	C	0.413575	0.354815	0.736898
0	C	0.92591	0.156618	0.234841
0	C	0.560318	0.660166	0.260789
0	H	0.00946792	0.835066	0.696673
0	H	0.449236	0.331843	0.804016
0	H	0.964371	0.179514	0.300895
0	H	0.5247	0.683268	0.193693
0	C	0.0828592	0.953837	0.775194
0	C	0.377173	0.450002	0.723397
0	C	0.891252	0.060641	0.222267
0	C	0.596472	0.564854	0.274189
0	H	0.0712868	0.0065138	0.719224
0	H	0.384408	0.501765	0.779837
0	H	0.90293	0.00791638	0.278181
0	H	0.589075	0.513148	0.217703
0	C	0.132172	0.98257	0.860064
0	C	0.331971	0.479081	0.637008
0	C	0.842027	0.0319119	0.137377
0	C	0.64165	0.535603	0.360514
0	H	0.159161	0.0576472	0.870663
0	H	0.304076	0.553713	0.625604
0	H	0.815192	0.956782	0.126742
0	H	0.669364	0.460886	0.37184
0	C	0.146486	0.916061	0.932358
0	C	0.323048	0.413474	0.564252
0	C	0.827613	0.0984561	0.0651243
0	C	0.65076	0.601147	0.433354
0	H	0.185191	0.939798	0.998286
0	H	0.287743	0.437473	0.497054
0	H	0.788992	0.0746934	0.999167
0	H	0.686064	0.577003	0.500506
0	C	0.0281276	0.639071	0.309714
0	C	0.454803	0.137804	0.188177
0	C	0.945823	0.375811	0.687985
0	C	0.519192	0.877012	0.809576
0	C	0.941096	0.596114	0.299491
0	C	0.541639	0.0942069	0.198412
0	C	0.032858	0.41876	0.698223
0	C	0.432385	0.920682	0.79932
0	C	0.863228	0.655659	0.295998
0	C	0.619971	0.153107	0.202163
0	C	0.110724	0.359209	0.701706
0	C	0.354012	0.861859	0.795584
0	H	0.796624	0.621175	0.291234
0	H	0.686368	0.118052	0.20709
0	H	0.177331	0.393696	0.706496
0	H	0.287634	0.896957	0.790652
0	C	0.870503	0.758513	0.299183
0	C	0.61354	0.25604	0.199156
0	C	0.103455	0.256354	0.698477
0	C	0.360369	0.758918	0.798605
0	C	0.956188	0.801755	0.302662
0	C	0.528052	0.299903	0.19517
0	C	0.017765	0.213108	0.694968
0	C	0.445824	0.714968	0.802608
0	H	0.962028	0.881923	0.302087
0	H	0.522626	0.380032	0.195704
0	H	0.0119282	0.133004	0.6955
0	H	0.45118	0.63485	0.802089
0	C	0.0343182	0.742887	0.3064
0	C	0.449507	0.241681	0.191505
0	C	0.939627	0.271974	0.691243
0	C	0.524414	0.773133	0.80627
0	C	0.923916	0.487307	0.289817
0	C	0.558498	0.985359	0.208315
0	C	0.0500324	0.527576	0.707889
0	C	0.415598	0.0295416	0.78936
0	H	0.851712	0.470215	0.263687
0	H	0.630739	0.968126	0.234297
0	H	0.122196	0.544683	0.734236
0	H	0.343318	0.0468276	0.763652
0	H	0.942733	0.449511	0.355712
0	H	0.539488	0.947255	0.142549
0	H	0.0314155	0.565288	0.641939
0	H	0.434918	0.0677421	0.855035
0	H	0.962973	0.452921	0.243525
0	H	0.519608	0.951323	0.254887
0	H	0.010809	0.562018	0.753975
0	H	0.454264	0.0634171	0.742519
0	C	0.788322	0.821907	0.297976
0	C	0.696344	0.318701	0.201202
0	C	0.185622	0.192965	0.699608
0	C	0.277521	0.696329	0.796519
0	H	0.724675	0.778869	0.286559
0	H	0.759766	0.275248	0.214808
0	H	0.249336	0.235906	0.711695
0	H	0.214139	0.73985	0.783177
0	H	0.781216	0.877965	0.244193
0	H	0.702519	0.37593	0.25386
0	H	0.192381	0.136334	0.752851
0	H	0.271184	0.639317	0.743657
0	H	0.792652	0.860775	0.362771
0	H	0.693777	0.356003	0.13591
0	H	0.181573	0.154778	0.634506
0	H	0.280164	0.658752	0.861693
0	C	0.121215	0.798378	0.306478
0	C	0.363112	0.297818	0.192188
0	C	0.852726	0.216492	0.691101
0	C	0.610759	0.716911	0.805584
0	H	0.109011	0.868583	0.269599
0	H	0.376075	0.368045	0.228901
0	H	0.864925	0.146135	0.727746
0	H	0.597722	0.646678	0.768877
0	H	0.170805	0.756363	0.276564
0	H	0.313818	0.256177	0.222838
0	H	0.803193	0.258374	0.721194
0	H	0.660059	0.758446	0.774904
0	H	0.155428	0.8162	0.376434
0	H	0.328299	0.315634	0.122464
0	H	0.818459	0.198921	0.621147
0	H	0.645569	0.699051	0.875289
0	C	0.205256	0.619069	0.395013
0	C	0.275404	0.118357	0.105719
0	C	0.768696	0.39586	0.602733
0	C	0.698585	0.896385	0.89211
0	C	0.295718	0.615407	0.382143
0	C	0.185505	0.113103	0.120215
0	C	0.678258	0.399479	0.615649
0	C	0.78848	0.901676	0.877717
0	C	0.365576	0.664468	0.442489
0	C	0.11397	0.160758	0.0607474
0	C	0.608375	0.350394	0.555354
0	C	0.85998	0.853915	0.937197
0	H	0.43529	0.662092	0.430968
0	H	0.0449057	0.157161	0.0737363
0	H	0.538726	0.352719	0.566909
0	H	0.929156	0.857531	0.924251
0	C	0.347052	0.714155	0.518222
0	C	0.129846	0.210344	0.983919
0	C	0.626849	0.300768	0.479568
0	C	0.843985	0.804151	0.0138941
0	C	0.258304	0.711551	0.535013
0	C	0.218061	0.209468	0.965627
0	C	0.715571	0.303458	0.462682
0	C	0.755743	0.805055	0.0321159
0	H	0.243777	0.747233	0.59541
0	H	0.230807	0.245011	0.904455
0	H	0.730038	0.267831	0.402259
0	H	0.742911	0.7694	0.0931889
0	C	0.188135	0.662558	0.475346
0	C	0.289941	0.162158	0.0245773
0	C	0.785773	0.352425	0.522359
0	C	0.683934	0.852495	0.973191
0	C	0.326133	0.558267	0.308015
0	C	0.156986	0.0551955	0.194966
0	C	0.647833	0.456582	0.689825
0	C	0.817061	0.959623	0.803001
0	H	0.401099	0.551582	0.319812
0	H	0.0821349	0.0482149	0.184609
0	H	0.572866	0.463252	0.678019
0	H	0.891916	0.96675	0.8135
0	H	0.305441	0.593519	0.241612
0	H	0.178735	0.0898995	0.261486
0	H	0.66852	0.421245	0.756186
0	H	0.795461	0.924901	0.73653
0	H	0.299604	0.48243	0.304217
0	H	0.18375	0.979492	0.197686
0	H	0.674362	0.532397	0.693657
0	H	0.790165	0.0353072	0.800243
0	C	0.421303	0.7673	0.581065
0	C	0.0535709	0.261171	0.921599
0	C	0.552588	0.247638	0.416784
0	C	0.920141	0.753052	0.0761303
0	H	0.462715	0.813025	0.54448
0	H	0.0125536	0.307028	0.958471
0	H	0.511369	0.201776	0.453381
0	H	0.961187	0.707242	0.0391575
0	H	0.467286	0.71412	0.622685
0	H	0.00743546	0.206725	0.881943
0	H	0.506513	0.30077	0.375225
0	H	0.966358	0.807312	0.115955
0	H	0.395313	0.815238	0.629355
0	H	0.0774009	0.308613	0.871493
0	H	0.578557	0.199771	0.368372
0	H	0.896219	0.705498	0.126005
0	C	0.0975192	0.660457	0.503667
0	C	0.379705	0.161881	0.994586
0	C	0.876358	0.354497	0.493999
0	C	0.594149	0.852823	0.00314676
0	H	0.0564705	0.595245	0.477837
0	H	0.422609	0.09802	0.0207291
0	H	0.917541	0.419593	0.519961
0	H	0.551062	0.916476	0.976604
0	H	0.0562308	0.725517	0.478168
0	H	0.419739	0.228272	0.0184477
0	H	0.917525	0.28929	0.519266
0	H	0.554292	0.786222	0.979581
0	H	0.104671	0.659989	0.577693
0	H	0.371319	0.160072	0.920371
0	H	0.869163	0.355191	0.419977
0	H	0.60249	0.855122	0.0772741
