#******************************************
#
# CIF file created by Zeo++
# Zeo++ is an open source package to
# analyze microporous materials
#
#*******************************************

_cell_length_a		14.7688(0)
_cell_length_b		17.7154(0)
_cell_length_c		19.4388(0)
_cell_angle_alpha		81.7519(0)
_cell_angle_beta		82.5319(0)
_cell_angle_gamma		90.765(0)

_symmetry_space_group_name_H-M		'P1'
_symmetry_Int_Tables_number		1
_symmetry_cell_setting		Triclinic

loop_
_symmetry_equiv_pos_as_xyz
'+x,+y,+z'

loop_
_atom_site_label
_atom_site_type_symbol
_atom_site_fract_x
_atom_site_fract_y
_atom_site_fract_z
0	Si	0.488293	0.5094	0.707315
0	Si	0.54442	0.618551	0.254899
0	Si	0.478511	0.379211	0.691701
0	Si	0.553512	0.749735	0.27294
0	Si	0.372431	0.59181	0.836011
0	Si	0.658091	0.531257	0.130275
0	Si	0.377959	0.213911	0.755479
0	Si	0.664358	0.91245	0.219275
0	Si	0.416434	0.473365	0.560956
0	Si	0.622029	0.650862	0.399253
0	Si	0.687751	0.435043	0.687454
0	Si	0.344176	0.692263	0.278064
0	O	0.435245	0.548401	0.774136
0	O	0.595444	0.57388	0.189243
0	O	0.434144	0.299185	0.740637
0	O	0.604792	0.832796	0.231446
0	C	0.40185	0.456858	0.661007
0	C	0.631709	0.671135	0.299379
0	C	0.566261	0.431724	0.735131
0	C	0.465518	0.696957	0.229267
0	C	0.539494	0.578496	0.636202
0	C	0.495091	0.548197	0.325561
0	C	0.548392	0.338624	0.621906
0	C	0.484125	0.787222	0.345192
0	C	0.298559	0.462467	0.691992
0	C	0.73454	0.675081	0.264187
0	C	0.271575	0.547893	0.681793
0	C	0.776739	0.594895	0.277775
0	C	0.172468	0.55676	0.715456
0	C	0.87674	0.596763	0.241986
0	C	0.161802	0.525357	0.794415
0	C	0.880533	0.62076	0.162102
0	C	0.18283	0.439704	0.803939
0	C	0.84234	0.701378	0.147918
0	C	0.281627	0.428074	0.771322
0	C	0.74264	0.701507	0.183332
0	C	0.230199	0.418499	0.656037
0	C	0.795112	0.732366	0.293385
0	C	0.130234	0.427352	0.688539
0	C	0.895058	0.734301	0.257482
0	C	0.106604	0.512447	0.679175
0	C	0.934695	0.654332	0.271577
0	C	0.11683	0.395809	0.767442
0	C	0.899572	0.759157	0.177747
0	C	0.579605	0.413872	0.814238
0	C	0.445858	0.714404	0.151489
0	C	0.492454	0.379947	0.863218
0	C	0.530656	0.747605	0.0995955
0	C	0.510997	0.363851	0.940362
0	C	0.506665	0.763517	0.0237947
0	C	0.587248	0.3056	0.947137
0	C	0.430354	0.821968	0.0197437
0	C	0.674776	0.338288	0.899405
0	C	0.344883	0.789749	0.070224
0	C	0.655221	0.353397	0.822468
0	C	0.369711	0.77494	0.14594
0	C	0.610187	0.487925	0.841007
0	C	0.412409	0.640124	0.126533
0	C	0.629072	0.471065	0.917686
0	C	0.387851	0.656728	0.0512424
0	C	0.540943	0.43843	0.964711
0	C	0.473756	0.688856	0.00115499
0	C	0.70559	0.413012	0.922901
0	C	0.311414	0.715031	0.048413
0	C	0.462233	0.829401	0.777401
0	C	0.611707	0.291031	0.158074
0	C	0.383786	0.696226	0.811909
0	C	0.679095	0.428281	0.134546
0	C	0.415496	0.76117	0.796557
0	C	0.658102	0.360178	0.142783
0	C	0.341172	0.0677075	0.83711
0	C	0.681767	0.0569925	0.114523
0	C	0.371607	0.13637	0.809936
0	C	0.660012	0.997954	0.154452
0	C	0.302113	0.00259111	0.85434
0	C	0.716214	0.124781	0.077978
0	C	0.534974	0.57554	0.57411
0	C	0.501734	0.54978	0.387543
0	C	0.507998	0.548699	0.514833
0	C	0.53047	0.575914	0.446546
0	C	0.367643	0.396814	0.518004
0	C	0.670206	0.724886	0.444734
0	C	0.368947	0.325252	0.516333
0	C	0.666675	0.795763	0.450012
0	C	0.300473	0.510954	0.443968
0	C	0.738443	0.609945	0.515564
0	C	0.337473	0.474822	0.495861
0	C	0.70293	0.646823	0.46314
0	C	0.717193	0.352282	0.639839
0	C	0.315023	0.772663	0.328398
0	C	0.633289	0.341198	0.623196
0	C	0.399097	0.784622	0.343515
0	C	0.778486	0.506227	0.696127
0	C	0.249649	0.624088	0.269439
0	C	0.836533	0.522963	0.73479
0	C	0.186586	0.616728	0.232121
0	C	0.745216	0.514234	0.626461
0	C	0.288434	0.610245	0.336568
0	C	0.752444	0.56527	0.570493
0	C	0.283798	0.556982	0.390634
0	Si	0.0730326	0.159882	0.281946
0	Si	0.968461	0.985237	0.671116
0	Si	0.938955	0.181294	0.229453
0	Si	0.106114	0.972599	0.723063
0	Si	0.292161	0.127695	0.266811
0	Si	0.7562	0.0325509	0.677378
0	Si	0.799104	0.270115	0.124972
0	Si	0.234542	0.926866	0.850627
0	Si	0.973002	0.294796	0.344201
0	Si	0.0807111	0.852093	0.612145
0	Si	0.910697	0.0404236	0.30317
0	Si	0.117987	0.106619	0.637171
0	O	0.187313	0.156912	0.265624
0	O	0.856564	0.990023	0.688058
0	O	0.875177	0.222704	0.172094
0	O	0.162052	0.944828	0.786292
0	C	0.016327	0.254617	0.262812
0	C	0.0344086	0.895419	0.691154
0	C	0.00532253	0.0946602	0.232143
0	C	0.0341878	0.057491	0.714252
0	C	0.034256	0.114639	0.37085
0	C	0.998722	0.0245357	0.578385
0	C	0.850887	0.134191	0.309085
0	C	0.193135	0.0198145	0.64164
0	C	0.063662	0.319332	0.204992
0	C	0.988547	0.829388	0.748664
0	C	0.993718	0.381242	0.184961
0	C	0.0595788	0.76835	0.768123
0	C	0.0390198	0.444358	0.12706
0	C	0.0137451	0.702737	0.82332
0	C	0.0747151	0.409348	0.0608615
0	C	0.97605	0.734732	0.890676
0	C	0.14644	0.34998	0.0793467
0	C	0.90482	0.794882	0.873239
0	C	0.101944	0.286497	0.137128
0	C	0.949659	0.860201	0.817348
0	C	0.145888	0.358888	0.229922
0	C	0.9073	0.79049	0.721834
0	C	0.190139	0.422884	0.172326
0	C	0.86302	0.72495	0.777644
0	C	0.1189	0.48281	0.154093
0	C	0.934981	0.665097	0.794231
0	C	0.226716	0.388789	0.10577
0	C	0.825269	0.757315	0.844878
0	C	0.0582789	0.0510492	0.177885
0	C	0.986815	0.101891	0.770541
0	C	0.992653	0.00833792	0.138965
0	C	0.0579404	0.14565	0.804014
0	C	0.0477006	0.965051	0.0847963
0	C	0.00922333	0.18962	0.860564
0	C	0.109218	0.0216141	0.030065
0	C	0.953372	0.133369	0.919118
0	C	0.175522	0.063842	0.0674708
0	C	0.881618	0.0903327	0.887136
0	C	0.119775	0.107221	0.121018
0	C	0.930704	0.0462788	0.830962
0	C	0.119918	0.991045	0.214084
0	C	0.92146	0.161259	0.73827
0	C	0.17492	0.948259	0.159559
0	C	0.872532	0.204492	0.79523
0	C	0.108035	0.906204	0.122239
0	C	0.94442	0.247459	0.827174
0	C	0.236131	0.00561662	0.10528
0	C	0.816605	0.147578	0.85327
0	C	0.407985	0.157147	0.222918
0	C	0.648637	0.981111	0.715622
0	C	0.480163	0.191483	0.19981
0	C	0.582061	0.938747	0.736378
0	C	0.553963	0.239742	0.176289
0	C	0.514623	0.884169	0.758696
0	C	0.852476	0.300996	0.98061
0	C	0.22816	0.825546	0.893158
0	C	0.755485	0.185326	0.051857
0	C	0.0813368	0.878617	0.961502
0	C	0.804967	0.25347	0.0269502
0	C	0.154891	0.862952	0.92573
0	C	0.831456	0.189524	0.348972
0	C	0.217833	0.963581	0.604989
0	C	0.863573	0.24372	0.373653
0	C	0.189459	0.905919	0.582594
0	C	0.0364245	0.326003	0.410295
0	C	0.0204163	0.820654	0.545434
0	C	0.969409	0.458867	0.359778
0	C	0.0956068	0.689572	0.590454
0	C	0.988652	0.388607	0.370424
0	C	0.0720167	0.758908	0.583439
0	C	0.0851577	0.303221	0.458148
0	C	0.968402	0.8394	0.498335
0	C	0.00775456	0.0733593	0.440693
0	C	0.0193314	0.0616584	0.506456
0	C	0.966011	0.0595063	0.379812
0	C	0.064275	0.0821028	0.563981
0	C	0.820361	0.973793	0.280898
0	C	0.234245	0.213198	0.661837
0	C	0.935871	0.878043	0.340195
0	C	0.109987	0.258745	0.594498
0	C	0.746323	0.960902	0.255511
0	C	0.298803	0.220014	0.693644
0	C	0.892607	0.934818	0.314826
0	C	0.15739	0.206403	0.62767
0	H	0.277618	0.570421	0.625034
0	H	0.775757	0.57655	0.334893
0	H	0.318471	0.58461	0.703419
0	H	0.736272	0.550907	0.259229
0	H	0.156135	0.618414	0.7083
0	H	0.904984	0.538876	0.252783
0	H	0.0916081	0.533803	0.819052
0	H	0.951855	0.620804	0.136343
0	H	0.207798	0.557434	0.821784
0	H	0.841585	0.579213	0.139075
0	H	0.174737	0.416901	0.860925
0	H	0.844315	0.718529	0.0903
0	H	0.294014	0.366028	0.777176
0	H	0.716977	0.759979	0.172543
0	H	0.329425	0.452238	0.802431
0	H	0.700557	0.665333	0.157136
0	H	0.246841	0.357658	0.659906
0	H	0.76748	0.790261	0.286408
0	H	0.234416	0.440261	0.599324
0	H	0.796136	0.716939	0.350546
0	H	0.0840455	0.395274	0.66116
0	H	0.936206	0.775741	0.279809
0	H	0.111636	0.536218	0.62292
0	H	0.935739	0.636827	0.328383
0	H	0.0349283	0.519549	0.701314
0	H	0.00678281	0.654945	0.247295
0	H	0.0453518	0.402083	0.790514
0	H	0.971018	0.76261	0.152057
0	H	0.129879	0.334113	0.775606
0	H	0.873102	0.817112	0.166838
0	H	0.469672	0.325838	0.847372
0	H	0.556227	0.801124	0.114568
0	H	0.43512	0.419212	0.859069
0	H	0.587184	0.707314	0.101478
0	H	0.44723	0.339939	0.973875
0	H	0.568762	0.78696	0.987888
0	H	0.565689	0.250573	0.932907
0	H	0.453346	0.877142	0.0326419
0	H	0.600784	0.293006	0.00217444
0	H	0.413418	0.83435	0.965438
0	H	0.729773	0.295973	0.903468
0	H	0.289679	0.832048	0.067757
0	H	0.632059	0.298942	0.80744
0	H	0.394133	0.829518	0.159801
0	H	0.721441	0.371801	0.788179
0	H	0.304723	0.756867	0.182272
0	H	0.556757	0.530998	0.836976
0	H	0.466114	0.597163	0.128516
0	H	0.671658	0.515417	0.807837
0	H	0.352598	0.612499	0.161752
0	H	0.65119	0.525022	0.934791
0	H	0.363698	0.602665	0.0354886
0	H	0.486165	0.480184	0.961731
0	H	0.528115	0.646717	0.00200804
0	H	0.55247	0.427522	0.020227
0	H	0.458249	0.699864	0.946519
0	H	0.76937	0.436454	0.890196
0	H	0.248792	0.691968	0.0827977
0	H	0.721642	0.401721	0.977373
0	H	0.29216	0.726576	0.994612
0	H	0.966149	0.408059	0.231054
0	H	0.0910118	0.7439	0.721716
0	H	0.934205	0.355366	0.166794
0	H	0.11639	0.794621	0.789504
0	H	0.987391	0.487585	0.114073
0	H	0.0657865	0.659621	0.835567
0	H	0.105143	0.454347	0.0184805
0	H	0.944895	0.688481	0.93139
0	H	0.0179357	0.382475	0.0403109
0	H	0.0324776	0.760166	0.913022
0	H	0.172318	0.324009	0.0319506
0	H	0.878487	0.819174	0.921489
0	H	0.154367	0.243831	0.148939
0	H	0.89777	0.903557	0.806784
0	H	0.0471547	0.256883	0.116168
0	H	0.00468544	0.887936	0.839737
0	H	0.197407	0.31668	0.243765
0	H	0.855352	0.832765	0.708909
0	H	0.124844	0.384215	0.278254
0	H	0.929175	0.766761	0.67274
0	H	0.247575	0.450793	0.19223
0	H	0.806072	0.697617	0.756705
0	H	0.0938775	0.509921	0.200602
0	H	0.960779	0.640242	0.746671
0	H	0.150698	0.529858	0.114392
0	H	0.903375	0.616583	0.832307
0	H	0.25963	0.434027	0.0647171
0	H	0.791329	0.711476	0.884707
0	H	0.280015	0.347492	0.116986
0	H	0.772561	0.799235	0.833648
0	H	0.947387	0.0488507	0.11274
0	H	0.106226	0.10558	0.827425
0	H	0.947172	0.966937	0.176428
0	H	0.100302	0.186517	0.763982
0	H	0.999119	0.934699	0.057877
0	H	0.0615561	0.220562	0.883328
0	H	0.0669912	0.0621578	0.999967
0	H	0.999206	0.0926401	0.945507
0	H	0.14898	0.991443	0.990719
0	H	0.91946	0.163923	0.960585
0	H	0.21963	0.105181	0.0281914
0	H	0.841487	0.0491425	0.929094
0	H	0.0763047	0.148077	0.0929197
0	H	0.976842	0.00535725	0.856151
0	H	0.1672	0.14127	0.144938
0	H	0.879633	0.0121337	0.810673
0	H	0.0775067	0.949358	0.253515
0	H	0.959798	0.202682	0.696322
0	H	0.167207	0.018311	0.243498
0	H	0.869994	0.13316	0.712857
0	H	0.218413	0.906039	0.186828
0	H	0.825896	0.246186	0.770898
0	H	0.0652134	0.863809	0.160456
0	H	0.983107	0.289884	0.78641
0	H	0.145812	0.873818	0.0837669
0	H	0.910718	0.280303	0.867004
0	H	0.285896	0.0349968	0.130859
0	H	0.763683	0.117242	0.831489
0	H	0.27682	0.97538	0.0664682
0	H	0.779675	0.178147	0.893582
