#******************************************
#
# CIF file created by Zeo++
# Zeo++ is an open source package to
# analyze microporous materials
#
#*******************************************

_cell_length_a		9.27069(0)
_cell_length_b		31.1494(0)
_cell_length_c		18.1475(0)
_cell_angle_alpha		90(0)
_cell_angle_beta		90(0)
_cell_angle_gamma		90(0)

_symmetry_space_group_name_H-M		'P1'
_symmetry_Int_Tables_number		1
_symmetry_cell_setting		Monoclinic

loop_
_symmetry_equiv_pos_as_xyz
'+x,+y,+z'

loop_
_atom_site_label
_atom_site_type_symbol
_atom_site_fract_x
_atom_site_fract_y
_atom_site_fract_z
0	Br	0.689261	0.250399	0.712587
0	Br	0.351343	0.701346	0.301031
0	Br	0.166529	0.226132	0.762811
0	Br	0.862859	0.776207	0.265459
0	Br	0.530275	0.591546	0.299206
0	Br	0.512467	0.400525	0.794987
0	Br	0.0218636	0.889276	0.306348
0	Br	0.0110969	0.110341	0.80181
0	Br	0.146997	0.351156	0.746315
0	Br	0.918122	0.645643	0.264922
0	Br	0.605242	0.14841	0.751655
0	Br	0.414894	0.855	0.254571
0	N	0.665382	0.439023	0.503811
0	N	0.377066	0.566192	0.000696559
0	N	0.164019	0.0636682	0.498404
0	N	0.872387	0.937485	0.998255
0	N	0.439882	0.531632	0.668999
0	N	0.595172	0.468295	0.159323
0	N	0.939963	0.969167	0.663258
0	N	0.0966621	0.0331839	0.160045
0	N	0.988367	0.572109	0.711937
0	N	0.0547884	0.427922	0.196243
0	N	0.487976	0.926835	0.708109
0	N	0.552342	0.0750525	0.20077
0	H	0.0316611	0.566916	0.763937
0	H	0.0238482	0.43325	0.25039
0	H	0.527911	0.932866	0.760561
0	H	0.516806	0.0694288	0.254114
0	O	0.354617	0.338633	0.469442
0	O	0.687293	0.665984	0.986871
0	O	0.853138	0.16385	0.471587
0	O	0.182792	0.836742	0.976655
0	O	0.528303	0.312341	0.393315
0	O	0.524622	0.69835	0.91103
0	O	0.0269693	0.193205	0.398602
0	O	0.0139794	0.807455	0.900736
0	O	0.978799	0.447598	0.3894
0	O	0.0592172	0.560635	0.892495
0	O	0.483793	0.0594296	0.388939
0	O	0.55374	0.942023	0.889254
0	O	0.96975	0.406496	0.491815
0	O	0.0748308	0.600494	0.996251
0	O	0.463921	0.0988845	0.49291
0	O	0.571706	0.902223	0.992873
0	O	0.800365	0.495694	0.5408
0	O	0.236598	0.509215	0.0308323
0	O	0.298546	0.00592562	0.530627
0	O	0.736158	0.995173	0.0290797
0	O	0.613896	0.60049	0.710854
0	O	0.422404	0.398715	0.201898
0	O	0.114183	0.899889	0.703558
0	O	0.92405	0.103163	0.199347
0	O	0.656255	0.569023	0.821176
0	O	0.373977	0.43108	0.31066
0	O	0.158491	0.93126	0.813669
0	O	0.876196	0.0722837	0.309439
0	O	0.310557	0.568343	0.753014
0	O	0.728674	0.432253	0.242529
0	O	0.809106	0.935186	0.749923
0	O	0.229887	0.0676964	0.245178
0	O	0.163356	0.675217	0.732608
0	O	0.871367	0.325371	0.220902
0	O	0.680824	0.827391	0.735009
0	O	0.359446	0.175038	0.226432
0	O	0.986642	0.649328	0.805693
0	O	0.0306239	0.357142	0.297758
0	O	0.493977	0.850978	0.803777
0	O	0.54042	0.149826	0.297532
0	C	0.550265	0.405733	0.513545
0	C	0.492257	0.598871	0.0157229
0	C	0.0471301	0.0962487	0.509677
0	C	0.98866	0.904919	0.0112567
0	H	0.446972	0.421981	0.529803
0	H	0.59605	0.581544	0.027646
0	H	0.943783	0.0789599	0.522604
0	H	0.0919667	0.922232	0.0242007
0	C	0.532826	0.387068	0.434524
0	C	0.507788	0.621952	0.940322
0	C	0.0324495	0.117277	0.432376
0	C	0.00455185	0.883188	0.934631
0	H	0.449929	0.407393	0.404491
0	H	0.588111	0.602867	0.906028
0	H	0.950461	0.0978384	0.399969
0	H	0.086024	0.902605	0.901746
0	C	0.679733	0.393086	0.396807
0	C	0.359504	0.618655	0.902966
0	C	0.180111	0.112467	0.395071
0	C	0.856866	0.887301	0.896962
0	H	0.668467	0.397538	0.336244
0	H	0.368334	0.617789	0.841904
0	H	0.169969	0.109062	0.334225
0	H	0.867078	0.889813	0.836005
0	H	0.748776	0.364348	0.404222
0	H	0.291083	0.646641	0.916915
0	H	0.24808	0.141231	0.40463
0	H	0.788986	0.858692	0.907917
0	C	0.745058	0.433425	0.433026
0	C	0.295721	0.576072	0.931824
0	C	0.245998	0.0715285	0.428975
0	C	0.791004	0.928751	0.928964
0	H	0.728395	0.462762	0.397761
0	H	0.312397	0.549352	0.89075
0	H	0.233055	0.0431536	0.391061
0	H	0.804989	0.956514	0.889721
0	C	0.589997	0.372234	0.570712
0	C	0.455285	0.627398	0.0810231
0	C	0.0810521	0.127472	0.571533
0	C	0.953312	0.874411	0.0740082
0	C	0.732437	0.358342	0.580221
0	C	0.313554	0.639532	0.0974383
0	C	0.220319	0.143228	0.584028
0	C	0.812275	0.861074	0.0892966
0	H	0.82128	0.373942	0.550456
0	H	0.224738	0.630584	0.0604211
0	H	0.310525	0.132845	0.549063
0	H	0.721587	0.872834	0.055917
0	C	0.763615	0.323939	0.626949
0	C	0.282253	0.66255	0.161751
0	C	0.24699	0.172191	0.64139
0	C	0.784333	0.832632	0.147236
0	H	0.87507	0.313344	0.634268
0	H	0.170755	0.67118	0.174392
0	H	0.356644	0.183755	0.651286
0	H	0.67341	0.823055	0.15931
0	C	0.649907	0.303353	0.662762
0	C	0.394475	0.673588	0.209212
0	C	0.132168	0.185567	0.68537
0	C	0.899506	0.817123	0.188876
0	C	0.508818	0.318823	0.659214
0	C	0.53788	0.663975	0.191893
0	C	0.992145	0.170274	0.67412
0	C	0.0412014	0.830212	0.1752
0	H	0.422143	0.30386	0.690889
0	H	0.625907	0.674523	0.227648
0	H	0.902579	0.181279	0.70843
0	H	0.130917	0.817727	0.207905
0	C	0.479381	0.353582	0.612858
0	C	0.567558	0.640669	0.127933
0	C	0.967262	0.141027	0.617178
0	C	0.0673552	0.859114	0.117843
0	H	0.368252	0.365006	0.607624
0	H	0.679959	0.6335	0.11372
0	H	0.857404	0.12956	0.6073
0	H	0.178402	0.868918	0.106075
0	C	0.477323	0.341369	0.429809
0	C	0.568486	0.667004	0.943943
0	C	0.976055	0.162922	0.43199
0	C	0.0622027	0.837749	0.935164
0	C	0.261343	0.299084	0.473365
0	C	0.785548	0.703813	0.999441
0	C	0.760381	0.20323	0.480951
0	C	0.275459	0.797249	0.985537
0	C	0.146059	0.315245	0.526307
0	C	0.895449	0.682993	0.0505927
0	C	0.645091	0.185055	0.531879
0	C	0.391246	0.815024	0.0366271
0	H	0.097582	0.345494	0.506379
0	H	0.950566	0.655899	0.0232064
0	H	0.595384	0.155918	0.508328
0	H	0.438138	0.844923	0.0141797
0	H	0.189523	0.321673	0.581427
0	H	0.844363	0.670122	0.100588
0	H	0.688985	0.176165	0.585946
0	H	0.349297	0.822593	0.0915931
0	H	0.0588087	0.291724	0.532013
0	H	0.978066	0.705995	0.0679399
0	H	0.558903	0.208447	0.54146
0	H	0.479916	0.791977	0.0431193
0	C	0.204651	0.290125	0.396416
0	C	0.84752	0.716643	0.925325
0	C	0.704384	0.215589	0.405292
0	C	0.332358	0.785416	0.909913
0	H	0.137243	0.316688	0.375807
0	H	0.900759	0.689403	0.897657
0	H	0.639655	0.189661	0.380504
0	H	0.395442	0.811792	0.885331
0	H	0.138075	0.260826	0.395542
0	H	0.928475	0.74247	0.930991
0	H	0.63581	0.244449	0.407766
0	H	0.403739	0.757145	0.912522
0	H	0.293026	0.285662	0.357019
0	H	0.763327	0.728403	0.887944
0	H	0.793225	0.222494	0.36717
0	H	0.244477	0.777966	0.871593
0	C	0.35146	0.262487	0.50401
0	C	0.698084	0.738921	0.0365793
0	C	0.851779	0.23786	0.516741
0	C	0.182574	0.762579	0.0204157
0	H	0.438416	0.253407	0.465693
0	H	0.612934	0.751441	0.000109166
0	H	0.943491	0.247163	0.481647
0	H	0.0943382	0.752636	0.983259
0	H	0.285042	0.23384	0.513522
0	H	0.767174	0.766079	0.0521813
0	H	0.78725	0.266831	0.526794
0	H	0.246676	0.733917	0.033184
0	H	0.402264	0.270988	0.556617
0	H	0.645326	0.727252	0.0869271
0	H	0.89565	0.227344	0.569999
0	H	0.132839	0.773623	0.0719247
0	C	0.907121	0.426799	0.444682
0	C	0.134218	0.581271	0.946689
0	C	0.406631	0.0788544	0.443686
0	C	0.630086	0.922028	0.943688
0	C	0.134313	0.440988	0.385782
0	C	0.902755	0.565684	0.893631
0	C	0.638975	0.0671961	0.388452
0	C	0.397921	0.935532	0.889848
0	H	0.168265	0.464634	0.344519
0	H	0.865724	0.539503	0.857987
0	H	0.681317	0.0397062	0.357626
0	H	0.35839	0.961977	0.855511
0	H	0.154907	0.407955	0.366783
0	H	0.876881	0.597242	0.869637
0	H	0.657552	0.0975775	0.358763
0	H	0.375778	0.904146	0.864243
0	H	0.183827	0.446852	0.439582
0	H	0.861295	0.563056	0.949768
0	H	0.681512	0.0690018	0.444484
0	H	0.355933	0.93672	0.945992
0	C	0.697216	0.47219	0.55286
0	C	0.341166	0.531531	0.0458595
0	C	0.195502	0.0290903	0.544613
0	C	0.839703	0.972341	0.0436117
0	C	0.458444	0.503156	0.603302
0	C	0.575097	0.496603	0.0934906
0	C	0.960791	0.995234	0.594821
0	C	0.0747297	0.00651651	0.0923845
0	H	0.363823	0.480512	0.601558
0	H	0.670887	0.518709	0.0899207
0	H	0.86517	0.0172662	0.589165
0	H	0.169919	0.984327	0.0869458
0	C	0.598829	0.476954	0.619876
0	C	0.438146	0.523683	0.112316
0	C	0.0980761	0.0227086	0.611433
0	C	0.937307	0.979364	0.110132
0	H	0.567432	0.444482	0.641184
0	H	0.473625	0.555053	0.136758
0	H	0.062791	0.0546403	0.633687
0	H	0.972333	0.947649	0.133422
0	C	0.677147	0.501082	0.682164
0	C	0.357824	0.498673	0.172819
0	C	0.178776	0.999017	0.673479
0	C	0.85727	0.00384535	0.171413
0	H	0.737861	0.478937	0.718264
0	H	0.295746	0.520206	0.209428
0	H	0.241001	0.0213663	0.708532
0	H	0.794392	0.982055	0.207158
0	H	0.758704	0.523842	0.659222
0	H	0.277517	0.476129	0.148258
0	H	0.259118	0.976027	0.65028
0	H	0.777455	0.0267853	0.14751
0	C	0.55733	0.524915	0.72383
0	C	0.477635	0.474617	0.214269
0	C	0.0598663	0.9757	0.716724
0	C	0.976985	0.0273238	0.213881
0	H	0.513869	0.505123	0.771148
0	H	0.520859	0.494249	0.26186
0	H	0.0191044	0.995718	0.764342
0	H	0.0175895	0.0076413	0.261914
0	C	0.613726	0.566555	0.757941
0	C	0.42003	0.433059	0.247977
0	C	0.115619	0.933889	0.750559
0	C	0.921014	0.0693594	0.246717
0	C	0.658458	0.641678	0.741837
0	C	0.373796	0.358029	0.233426
0	C	0.159362	0.858707	0.734415
0	C	0.877227	0.1444	0.229337
0	H	0.672806	0.661484	0.692643
0	H	0.36382	0.337602	0.18473
0	H	0.169488	0.838635	0.685279
0	H	0.869373	0.164323	0.179925
0	H	0.759271	0.637931	0.773259
0	H	0.270326	0.362504	0.262106
0	H	0.262348	0.862335	0.763915
0	H	0.772986	0.140754	0.257601
0	H	0.571527	0.653805	0.777014
0	H	0.456877	0.346223	0.27141
0	H	0.0745907	0.847022	0.771391
0	H	0.960066	0.156197	0.267321
0	C	0.468235	0.527634	0.531385
0	C	0.56118	0.471463	0.0223652
0	C	0.974743	0.967843	0.526215
0	C	0.0601631	0.0333404	0.0231599
0	C	0.554526	0.564351	0.524283
0	C	0.475818	0.434464	0.0172747
0	C	0.0594476	0.930592	0.524867
0	C	0.976499	0.0707864	0.0213724
0	H	0.610079	0.577363	0.572649
0	H	0.419379	0.422444	0.0661486
0	H	0.115006	0.92003	0.574998
0	H	0.922159	0.081894	0.0715096
0	C	0.571714	0.583848	0.455376
0	C	0.461556	0.413061	0.949819
0	C	0.0738525	0.907026	0.459587
0	C	0.961527	0.0938875	0.95564
0	H	0.640167	0.612176	0.449725
0	H	0.393868	0.384483	0.945849
0	H	0.141053	0.87826	0.458528
0	H	0.895141	0.122823	0.954214
0	C	0.501729	0.566265	0.394328
0	C	0.534097	0.428891	0.888156
0	C	0.00214316	0.920926	0.396307
0	C	0.0317205	0.0793153	0.892371
0	C	0.411227	0.530632	0.400791
0	C	0.621947	0.46523	0.892488
0	C	0.915216	0.957568	0.396939
0	C	0.117642	0.0424703	0.893432
0	H	0.354403	0.517544	0.353126
0	H	0.680619	0.477139	0.844521
0	H	0.857607	0.967843	0.347601
0	H	0.174292	0.0316726	0.844124
0	C	0.394423	0.511446	0.469794
0	C	0.63451	0.486583	0.95982
0	C	0.902166	0.981034	0.462148
0	C	0.131061	0.0194332	0.959062
0	H	0.323791	0.483447	0.474765
0	H	0.701313	0.515406	0.96288
0	H	0.835317	0.0098499	0.462422
0	H	0.196706	0.990362	0.959595
0	C	0.316745	0.554579	0.689558
0	C	0.72031	0.446171	0.179325
0	C	0.815974	0.947257	0.685491
0	C	0.221644	0.0549982	0.181182
0	C	0.0304714	0.616044	0.684882
0	C	0.00392546	0.384378	0.171614
0	C	0.536708	0.883206	0.682559
0	C	0.501792	0.118481	0.175187
0	H	0.935341	0.6289	0.6532
0	H	0.0960838	0.369094	0.140951
0	H	0.443511	0.868682	0.651502
0	H	0.594166	0.133292	0.143916
0	C	0.162257	0.611171	0.63277
0	C	0.873155	0.390454	0.11946
0	C	0.667451	0.889123	0.630247
0	C	0.3708	0.112134	0.123234
0	H	0.135071	0.622161	0.576584
0	H	0.900845	0.380454	0.0627665
0	H	0.641641	0.877335	0.574375
0	H	0.39682	0.12308	0.0668625
0	H	0.254754	0.631147	0.650687
0	H	0.780189	0.370255	0.135985
0	H	0.762356	0.870272	0.64857
0	H	0.276416	0.131452	0.140792
0	C	0.199104	0.562914	0.632827
0	C	0.837269	0.438758	0.121876
0	C	0.698469	0.937763	0.629304
0	C	0.33859	0.0635788	0.124194
0	H	0.229936	0.552005	0.576677
0	H	0.805533	0.450428	0.0662774
0	H	0.727268	0.948595	0.572837
0	H	0.308524	0.052158	0.0682226
0	C	0.0539546	0.541615	0.657342
0	C	0.983189	0.459662	0.145906
0	C	0.551632	0.957903	0.653885
0	C	0.485516	0.0434089	0.148571
0	H	0.978618	0.541404	0.608132
0	H	0.0546858	0.461697	0.0953394
0	H	0.476752	0.957704	0.60455
0	H	0.558906	0.0425538	0.0986251
0	C	0.0734113	0.496001	0.683524
0	C	0.966327	0.504145	0.177861
0	C	0.566022	0.00351477	0.681129
0	C	0.469983	0.99831	0.17807
0	C	0.0512573	0.463273	0.631437
0	C	0.993351	0.539177	0.131156
0	C	0.540517	0.0365396	0.630036
0	C	0.492735	0.964354	0.128474
0	H	0.0143731	0.471112	0.575552
0	H	0.0290023	0.533942	0.0741686
0	H	0.507191	0.0289	0.573513
0	H	0.526396	0.970889	0.071601
0	C	0.0726491	0.420323	0.650197
0	C	0.97853	0.581193	0.156775
0	C	0.553647	0.0795231	0.650624
0	C	0.476038	0.921814	0.150991
0	H	0.0537882	0.395377	0.6087
0	H	0.0012616	0.607937	0.119343
0	H	0.532076	0.104747	0.609931
0	H	0.494877	0.89587	0.111359
0	C	0.116624	0.41037	0.72175
0	C	0.936278	0.587839	0.22969
0	C	0.592596	0.0891527	0.723022
0	C	0.436669	0.913522	0.223845
0	C	0.13796	0.442229	0.774697
0	C	0.90874	0.553589	0.27721
0	C	0.618891	0.0569991	0.774824
0	C	0.41446	0.946662	0.274333
0	H	0.172106	0.434092	0.830553
0	H	0.875302	0.559089	0.334127
0	H	0.649956	0.0648923	0.83126
0	H	0.3837	0.93987	0.331235
0	C	0.115887	0.485238	0.755269
0	C	0.924179	0.511617	0.250923
0	C	0.6051	0.0139989	0.753523
0	C	0.431595	0.989204	0.251107
0	H	0.132967	0.510407	0.796651
0	H	0.902451	0.484572	0.288187
0	H	0.625611	0.988563	0.794088
0	H	0.413882	0.0153873	0.290627
0	C	0.0551927	0.646867	0.748955
0	C	0.971991	0.355853	0.238082
0	C	0.56558	0.853708	0.748047
0	C	0.471814	0.147853	0.240733
0	C	0.19976	0.707641	0.787438
0	C	0.827746	0.295716	0.278994
0	C	0.719291	0.796198	0.79169
0	C	0.318537	0.205469	0.283854
0	H	0.234411	0.734947	0.753821
0	H	0.791006	0.267637	0.24797
0	H	0.748342	0.767548	0.76014
0	H	0.283796	0.233694	0.252671
0	H	0.288962	0.694948	0.820727
0	H	0.738875	0.310604	0.309931
0	H	0.812864	0.809242	0.821512
0	H	0.228562	0.191192	0.314797
0	H	0.1064	0.715713	0.821926
0	H	0.918621	0.288035	0.315332
0	H	0.628726	0.790047	0.829132
0	H	0.409797	0.212733	0.320221
