#******************************************
#
# CIF file created by Zeo++
# Zeo++ is an open source package to
# analyze microporous materials
#
#*******************************************

_cell_length_a		10.8953(0)
_cell_length_b		10.2442(0)
_cell_length_c		15.0357(0)
_cell_angle_alpha		41.9132(0)
_cell_angle_beta		49.3867(0)
_cell_angle_gamma		54.5083(0)

_symmetry_space_group_name_H-M		'P1'
_symmetry_Int_Tables_number		1
_symmetry_cell_setting		Triclinic

loop_
_symmetry_equiv_pos_as_xyz
'+x,+y,+z'

loop_
_atom_site_label
_atom_site_type_symbol
_atom_site_fract_x
_atom_site_fract_y
_atom_site_fract_z
0	P	0.153547	0.131318	0.0351601
0	P	0.942596	0.0334423	0.340977
0	P	0.0262902	0.757236	0.290005
0	Cl	0.151557	0.469369	0.364907
0	Cl	0.828488	0.710393	0.330298
0	N	0.0424591	0.179809	0.159093
0	N	0.963242	0.795576	0.403838
0	N	0.123547	0.908128	0.113217
0	N	0.386953	0.972037	0.0600579
0	N	0.0070422	0.33754	0.904612
0	N	0.68562	0.108048	0.39754
0	N	0.0229151	0.984929	0.471931
0	C	0.505351	0.0527668	0.994152
0	C	0.47402	0.263679	0.936076
0	C	0.571363	0.385196	0.770309
0	C	0.755452	0.29303	0.729134
0	C	0.78697	0.0736434	0.797502
0	C	0.684739	0.951238	0.96262
0	C	0.853705	0.385639	0.928039
0	C	0.722906	0.297942	0.0802877
0	C	0.563524	0.449084	0.0957034
0	C	0.505536	0.578701	0.976223
0	C	0.643372	0.677802	0.824885
0	C	0.797261	0.523065	0.807775
0	C	0.581734	0.235175	0.428496
0	C	0.62244	0.429403	0.341909
0	C	0.598514	0.454335	0.441517
0	C	0.432935	0.411474	0.574008
0	C	0.398779	0.213006	0.655679
0	C	0.414064	0.200728	0.552941
0	C	0.157919	0.920314	0.484367
0	C	0.163588	0.809139	0.625642
0	C	0.28328	0.873452	0.603454
0	C	0.451478	0.867829	0.483431
0	C	0.434012	0.00904901	0.340177
0	C	0.319108	0.949762	0.353702
0	H	0.34081	0.33254	0.964778
0	H	0.512908	0.266198	0.987102
0	H	0.553599	0.540169	0.72494
0	H	0.521123	0.394766	0.720156
0	H	0.82179	0.378388	0.609054
0	H	0.808778	0.309112	0.762884
0	H	0.919669	0.00854311	0.775165
0	H	0.757635	0.0630741	0.745184
0	H	0.729978	0.937891	0.0177694
0	H	0.704128	0.796644	0.00642674
0	H	0.768901	0.232188	0.156735
0	H	0.697691	0.170196	0.116483
0	H	0.58146	0.544386	0.0961307
0	H	0.465197	0.367197	0.20396
0	H	0.46288	0.487215	0.990007
0	H	0.396001	0.693165	0.987956
0	H	0.675134	0.784276	0.80538
0	H	0.600195	0.766408	0.740313
0	H	0.771634	0.431052	0.808306
0	H	0.895554	0.599317	0.697678
0	H	0.750982	0.442606	0.257174
0	H	0.54162	0.552356	0.281965
0	H	0.608413	0.608609	0.377146
0	H	0.701838	0.356767	0.476806
0	H	0.432703	0.410132	0.649001
0	H	0.332465	0.534396	0.538253
0	H	0.484674	0.08798	0.709824
0	H	0.273862	0.19247	0.744552
0	H	0.316912	0.315515	0.509881
0	H	0.389711	0.0559897	0.61386
0	H	0.039508	0.82688	0.70561
0	H	0.200862	0.647135	0.676831
0	H	0.294195	0.774735	0.707297
0	H	0.232725	0.0258803	0.574318
0	H	0.504443	0.714184	0.514581
0	H	0.541135	0.90731	0.469625
0	H	0.385677	0.164629	0.306597
0	H	0.55697	0.0116218	0.251493
0	H	0.377801	0.810492	0.362151
0	H	0.29697	0.0660441	0.252292
0	H	0.415787	0.829952	0.0930059
0	H	0.0917573	0.398585	0.798386
0	H	0.647361	0.978743	0.460011
0	H	0.914006	0.966077	0.561269
