#******************************************
#
# CIF file created by Zeo++
# Zeo++ is an open source package to
# analyze microporous materials
#
#*******************************************

_cell_length_a		24.028(0)
_cell_length_b		24.051(0)
_cell_length_c		12.7772(0)
_cell_angle_alpha		90(0)
_cell_angle_beta		90(0)
_cell_angle_gamma		120.266(0)

_symmetry_space_group_name_H-M		'P1'
_symmetry_Int_Tables_number		1
_symmetry_cell_setting		Monoclinic

loop_
_symmetry_equiv_pos_as_xyz
'+x,+y,+z'

loop_
_atom_site_label
_atom_site_type_symbol
_atom_site_fract_x
_atom_site_fract_y
_atom_site_fract_z
0	C	0.726419	0.712937	0.0505094
0	C	0.29207	0.0228683	0.998575
0	C	0.996796	0.281575	0.0286368
0	C	0.39781	0.0524981	0.356794
0	C	0.959514	0.347633	0.362924
0	C	0.664746	0.614817	0.370826
0	C	0.0635216	0.385939	0.695449
0	C	0.628269	0.682705	0.69901
0	C	0.330835	0.946992	0.687062
0	C	0.777543	0.76738	0.00376028
0	C	0.237544	0.0227961	0.960236
0	C	0.997491	0.228468	0.985615
0	C	0.451479	0.106539	0.314398
0	C	0.905545	0.346625	0.319646
0	C	0.666216	0.562119	0.327631
0	C	0.116757	0.440681	0.6537
0	C	0.574434	0.68142	0.654559
0	C	0.333154	0.893775	0.648465
0	C	0.738524	0.680167	0.129311
0	C	0.323069	0.0583961	0.0884091
0	C	0.956316	0.273247	0.113174
0	C	0.40542	0.0197836	0.441039
0	C	0.992473	0.389052	0.446164
0	C	0.621629	0.605571	0.451517
0	C	0.0716926	0.352348	0.777708
0	C	0.660135	0.723507	0.783453
0	C	0.288827	0.939328	0.768744
0	C	0.840556	0.790048	0.0378374
0	C	0.214761	0.0589275	0.0105144
0	C	0.958009	0.167185	0.027324
0	C	0.512554	0.128053	0.35673
0	C	0.884141	0.386442	0.360323
0	C	0.624988	0.50029	0.365793
0	C	0.178095	0.461998	0.694681
0	C	0.552325	0.720743	0.694814
0	C	0.293723	0.833054	0.692146
0	C	0.801364	0.703081	0.164874
0	C	0.3005	0.0946177	0.139379
0	C	0.916897	0.212105	0.155788
0	C	0.466352	0.0412197	0.484256
0	C	0.971118	0.42876	0.487817
0	C	0.580705	0.54387	0.491046
0	C	0.132872	0.373758	0.819844
0	C	0.638057	0.762747	0.824519
0	C	0.249766	0.878831	0.81382
0	C	0.852346	0.758604	0.120189
0	C	0.246242	0.0950009	0.100213
0	C	0.918094	0.159024	0.113301
0	C	0.519978	0.0957727	0.442517
0	C	0.916459	0.426967	0.445503
0	C	0.582796	0.49126	0.448689
0	C	0.186075	0.428932	0.778678
0	C	0.583782	0.761045	0.780639
0	C	0.252493	0.825664	0.775728
0	C	0.920333	0.788627	0.157827
0	C	0.218282	0.132206	0.148107
0	C	0.879632	0.0922646	0.155821
0	C	0.58667	0.123858	0.485275
0	C	0.888167	0.465236	0.487699
0	C	0.54326	0.423982	0.48842
0	C	0.252946	0.456858	0.820507
0	C	0.555177	0.799319	0.821583
0	C	0.213823	0.759329	0.819733
0	N	0.92895	0.780762	0.263682
0	N	0.230634	0.148815	0.253541
0	N	0.863202	0.0859738	0.261607
0	N	0.592919	0.113875	0.591134
0	N	0.897998	0.481286	0.593663
0	N	0.527016	0.416422	0.594305
0	N	0.259364	0.447589	0.926565
0	N	0.565062	0.816331	0.927212
0	N	0.197311	0.753635	0.925415
0	C	0.990471	0.82031	0.319076
0	C	0.194237	0.171988	0.314869
0	C	0.840296	0.0254498	0.32022
0	C	0.653724	0.151812	0.649322
0	C	0.860192	0.50384	0.652138
0	C	0.504112	0.35512	0.650516
0	C	0.320373	0.485364	0.98428
0	C	0.527158	0.839254	0.984493
0	C	0.173807	0.693071	0.984355
0	C	0.0468568	0.818804	0.25964
0	C	0.196422	0.231352	0.259429
0	C	0.781267	0.968581	0.263018
0	C	0.710415	0.14948	0.592316
0	C	0.862981	0.563096	0.595497
0	C	0.445446	0.298745	0.591629
0	C	0.376618	0.482702	0.926479
0	C	0.529675	0.898049	0.926507
0	C	0.114776	0.636208	0.92683
0	N	0.0916174	0.883377	0.228124
0	N	0.131808	0.212971	0.23122
0	N	0.799932	0.922913	0.233709
0	N	0.756569	0.213989	0.56263
0	N	0.798486	0.544718	0.56627
0	N	0.464803	0.254035	0.559372
0	N	0.422598	0.547046	0.895741
0	N	0.465144	0.879434	0.897124
0	N	0.133193	0.590271	0.89797
0	C	0.154721	0.903296	0.178461
0	C	0.112813	0.25725	0.184003
0	C	0.755661	0.859621	0.18557
0	C	0.819981	0.233195	0.515047
0	C	0.780038	0.589233	0.518573
0	C	0.420846	0.190869	0.510454
0	C	0.485816	0.56563	0.848042
0	C	0.446232	0.923499	0.848753
0	C	0.0888769	0.526887	0.850104
0	C	0.146962	0.865177	0.0762905
0	C	0.149561	0.287352	0.0805859
0	C	0.725677	0.866714	0.0825207
0	C	0.812922	0.19622	0.411951
0	C	0.817517	0.619233	0.415767
0	C	0.390442	0.198194	0.40806
0	C	0.478214	0.527752	0.745706
0	C	0.483193	0.953039	0.745295
0	C	0.0592191	0.533736	0.74652
0	N	0.0950611	0.851379	0.0135145
0	N	0.160111	0.248219	0.0149949
0	N	0.764963	0.916954	0.0173505
0	N	0.762376	0.184354	0.347142
0	N	0.828246	0.580197	0.350167
0	N	0.429254	0.249604	0.344567
0	N	0.427765	0.516048	0.680739
0	N	0.495116	0.914018	0.681745
0	N	0.0983364	0.584431	0.682095
0	C	0.0770837	0.807409	0.92106
0	C	0.20408	0.273862	0.922361
0	C	0.739273	0.934903	0.924559
0	C	0.744212	0.140044	0.255021
0	C	0.872541	0.606618	0.257937
0	C	0.403412	0.268203	0.252722
0	C	0.409313	0.471676	0.588608
0	C	0.539343	0.939626	0.589332
0	C	0.0726188	0.602821	0.589793
0	C	0.0773117	0.84463	0.822586
0	C	0.166514	0.237182	0.823692
0	C	0.775999	0.934243	0.825968
0	C	0.744992	0.176774	0.155568
0	C	0.835561	0.570645	0.158449
0	C	0.439854	0.268091	0.153411
0	C	0.410234	0.508666	0.489382
0	C	0.502002	0.902949	0.490532
0	C	0.109286	0.602561	0.490872
0	C	0.05519	0.799876	0.727011
0	C	0.211386	0.260091	0.728162
0	C	0.753061	0.955803	0.730213
0	C	0.723505	0.131396	0.0607972
0	C	0.880827	0.595226	0.0634642
0	C	0.416583	0.290191	0.0587806
0	C	0.388417	0.463495	0.394321
0	C	0.547088	0.925883	0.395291
0	C	0.086214	0.62448	0.395785
0	C	0.988601	0.740315	0.74504
0	C	0.270432	0.252502	0.745533
0	C	0.760582	0.022385	0.747315
0	C	0.656712	0.0719837	0.0784059
0	C	0.940311	0.588336	0.0803698
0	C	0.424285	0.356781	0.0772962
0	C	0.321542	0.40423	0.411887
0	C	0.606141	0.918377	0.413151
0	C	0.0939141	0.691118	0.41375
0	C	0.988201	0.703967	0.843937
0	C	0.306905	0.287613	0.845071
0	C	0.725157	0.0233575	0.846562
0	C	0.655247	0.0363532	0.17886
0	C	0.976131	0.622483	0.180924
0	C	0.389797	0.357698	0.177704
0	C	0.320003	0.368332	0.512049
0	C	0.642319	0.953277	0.513038
0	C	0.0590045	0.692057	0.513671
0	C	0.0102649	0.747758	0.940465
0	C	0.262831	0.265537	0.941296
0	C	0.747236	0.00186832	0.943175
0	C	0.676988	0.0809535	0.274388
0	C	0.931613	0.59883	0.276609
0	C	0.412024	0.335281	0.272982
0	C	0.341956	0.412766	0.60781
0	C	0.597968	0.931189	0.608918
0	C	0.0810231	0.669871	0.609515
0	O	0.966835	0.820017	0.100267
0	O	0.18505	0.147763	0.0965168
0	O	0.863742	0.0444943	0.10121
0	O	0.63459	0.155593	0.430539
0	O	0.856471	0.481125	0.432859
0	O	0.526697	0.37686	0.431846
0	O	0.300716	0.487864	0.765158
0	O	0.5233	0.814701	0.766147
0	O	0.197669	0.711162	0.765975
0	C	0.0100231	0.892609	0.318496
0	C	0.121235	0.120662	0.318317
0	C	0.892251	0.00500353	0.321354
0	C	0.674928	0.224552	0.649948
0	C	0.787283	0.452037	0.652566
0	C	0.556295	0.334936	0.650399
0	C	0.341867	0.558172	0.984857
0	C	0.454293	0.787333	0.985301
0	C	0.225257	0.671939	0.986759
0	C	0.0727935	0.92884	0.260007
0	C	0.0855681	0.148327	0.262024
0	C	0.864524	0.941566	0.264887
0	C	0.73834	0.260125	0.593048
0	C	0.751909	0.480079	0.596515
0	C	0.52933	0.272591	0.59082
0	C	0.404844	0.593484	0.926624
0	C	0.418758	0.814998	0.928616
0	C	0.197591	0.608634	0.929819
0	O	0.104649	0.985686	0.24087
0	O	0.0286547	0.123983	0.243889
0	O	0.888867	0.909238	0.246639
0	O	0.771046	0.316932	0.574108
0	O	0.695062	0.455942	0.577971
0	O	0.554121	0.240908	0.570742
0	O	0.437485	0.650198	0.907195
0	O	0.361846	0.790658	0.910515
0	O	0.221815	0.576177	0.911892
0	C	0.986233	0.793861	0.428972
0	C	0.224073	0.192939	0.423211
0	C	0.818971	0.0320725	0.429524
0	C	0.647202	0.124188	0.758882
0	C	0.887884	0.524773	0.761772
0	C	0.482252	0.360182	0.760214
0	C	0.313954	0.457657	0.0936691
0	C	0.554964	0.860939	0.0938506
0	C	0.152181	0.7001	0.0931137
0	O	0.0544116	0.7737	0.243611
0	O	0.242163	0.284085	0.243816
0	O	0.728627	0.961346	0.246808
0	O	0.717167	0.103835	0.576775
0	O	0.908903	0.615656	0.579659
0	O	0.392574	0.291154	0.576611
0	O	0.383201	0.436963	0.910954
0	O	0.575536	0.950558	0.909915
0	O	0.0622747	0.629242	0.910316
0	C	0.198599	0.893496	0.255021
0	C	0.125131	0.311271	0.261627
0	C	0.701434	0.816813	0.262497
0	C	0.862212	0.221307	0.592013
0	C	0.792657	0.643748	0.595268
0	C	0.367242	0.147396	0.587875
0	C	0.527788	0.553991	0.926022
0	C	0.458326	0.978017	0.925183
0	C	0.0343327	0.484631	0.926925
0	C	0.203862	0.924135	0.35985
0	C	0.092399	0.285835	0.365156
0	C	0.726729	0.809385	0.365963
0	C	0.869553	0.253359	0.696081
0	C	0.75911	0.619372	0.698428
0	C	0.393715	0.142591	0.691926
0	C	0.535029	0.586595	0.0294961
0	C	0.425613	0.953063	0.0288262
0	C	0.0590997	0.476526	0.0303321
0	C	0.224426	0.989933	0.367401
0	C	0.02619	0.240859	0.369682
0	C	0.769846	0.786207	0.370519
0	C	0.892071	0.31962	0.701886
0	C	0.69241	0.576487	0.702336
0	C	0.437155	0.119868	0.697996
0	C	0.556485	0.65269	0.0339471
0	C	0.358824	0.910599	0.0337277
0	C	0.101557	0.452545	0.0347554
0	C	0.228663	0.0178315	0.465018
0	C	0.996114	0.217075	0.466022
0	C	0.79283	0.778966	0.46689
0	C	0.899293	0.349189	0.798926
0	C	0.661461	0.5546	0.798596
0	C	0.46212	0.115947	0.794584
0	C	0.563723	0.682904	0.130384
0	C	0.328769	0.88691	0.130148
0	C	0.124052	0.444639	0.131153
0	C	0.212773	0.980617	0.555998
0	C	0.0317176	0.237964	0.558773
0	C	0.773151	0.794955	0.559543
0	C	0.88392	0.312884	0.890936
0	C	0.696762	0.575237	0.891693
0	C	0.444098	0.134861	0.885954
0	C	0.549352	0.64742	0.223187
0	C	0.36494	0.905648	0.222531
0	C	0.104489	0.46065	0.223917
0	C	0.192651	0.915122	0.548826
0	C	0.0976047	0.283098	0.554562
0	C	0.730241	0.818121	0.555334
0	C	0.861446	0.246839	0.885435
0	C	0.763239	0.617963	0.888069
0	C	0.400675	0.157347	0.880226
0	C	0.527915	0.581555	0.218994
0	C	0.431388	0.948469	0.217931
0	C	0.0621493	0.484509	0.219741
0	C	0.188047	0.88684	0.451256
0	C	0.128008	0.306995	0.458296
0	C	0.707076	0.825408	0.459026
0	C	0.854166	0.217023	0.78848
0	C	0.794462	0.639959	0.791885
0	C	0.375492	0.161283	0.783728
0	C	0.520699	0.551074	0.122673
0	C	0.461825	0.972083	0.121576
0	C	0.0394988	0.492573	0.123445
0	O	0.18912	0.852886	0.0504035
0	O	0.163232	0.342495	0.0562007
0	O	0.670433	0.825071	0.0577053
0	O	0.854841	0.183314	0.387172
0	O	0.831764	0.674618	0.391698
0	O	0.335588	0.156087	0.38234
0	O	0.519699	0.514127	0.721511
0	O	0.495918	0.00760325	0.71925
0	O	0.00434877	0.491534	0.721256
0	H	0.676992	0.695732	0.0247216
0	H	0.310393	0.994874	0.959814
0	H	0.0279796	0.32974	0.996783
0	H	0.349801	0.0358896	0.324646
0	H	0.975875	0.315819	0.332379
0	H	0.697548	0.663447	0.342008
0	H	0.0152987	0.369396	0.664304
0	H	0.645452	0.651637	0.668225
0	H	0.36201	0.994791	0.653931
0	H	0.768177	0.792288	0.940981
0	H	0.212722	0.99465	0.891237
0	H	0.0289928	0.23485	0.919811
0	H	0.445651	0.132038	0.248744
0	H	0.879892	0.314509	0.254642
0	H	0.699706	0.569286	0.264465
0	H	0.11044	0.46692	0.589658
0	H	0.549528	0.649584	0.588849
0	H	0.365841	0.899633	0.584788
0	H	0.698514	0.636728	0.163092
0	H	0.365009	0.0574918	0.118712
0	H	0.956009	0.314939	0.146022
0	H	0.363352	0.977581	0.4731
0	H	0.0347468	0.38984	0.478796
0	H	0.620477	0.646935	0.483868
0	H	0.0298854	0.309487	0.809121
0	H	0.702072	0.724191	0.817601
0	H	0.28698	0.981068	0.797378
0	H	0.881008	0.832418	0.00184013
0	H	0.172371	0.0595758	0.980808
0	H	0.957964	0.125224	0.994172
0	H	0.554935	0.170198	0.324121
0	H	0.84202	0.386118	0.327045
0	H	0.625418	0.458627	0.332404
0	H	0.220203	0.504542	0.662425
0	H	0.510349	0.720284	0.660634
0	H	0.294712	0.790918	0.662307
0	H	0.810286	0.677853	0.228463
0	H	0.325299	0.122361	0.209569
0	H	0.885657	0.206101	0.222692
0	H	0.471737	0.015596	0.550994
0	H	0.996859	0.460558	0.553923
0	H	0.547795	0.537177	0.555628
0	H	0.138795	0.347642	0.885241
0	H	0.662978	0.79414	0.891455
0	H	0.217694	0.873477	0.879001
0	H	0.890358	0.748528	0.309828
0	H	0.263806	0.141848	0.295499
0	H	0.869712	0.125379	0.305253
0	H	0.553469	0.0810137	0.635114
0	H	0.930827	0.474835	0.637559
0	H	0.534262	0.45542	0.639841
0	H	0.219874	0.415383	0.9711
0	H	0.597722	0.810012	0.971885
0	H	0.204406	0.793318	0.968791
0	H	0.177616	0.955989	0.156646
0	H	0.0596254	0.228146	0.164316
0	H	0.784868	0.835985	0.165412
0	H	0.844128	0.286271	0.495123
0	H	0.726916	0.560411	0.498472
0	H	0.450417	0.167822	0.488965
0	H	0.51018	0.618548	0.826925
0	H	0.393103	0.894183	0.828981
0	H	0.117951	0.503028	0.83065
0	H	0.0582351	0.857522	0.0424537
0	H	0.152102	0.204234	0.0425579
0	H	0.808732	0.953554	0.0452326
0	H	0.725843	0.191404	0.374941
0	H	0.820659	0.536312	0.377516
0	H	0.472716	0.286248	0.373447
0	H	0.391436	0.523442	0.708512
0	H	0.487911	0.87057	0.710599
0	H	0.142097	0.620868	0.710473
0	H	0.113647	0.791862	0.911791
0	H	0.220827	0.326348	0.913303
0	H	0.686785	0.898597	0.915452
0	H	0.780305	0.123813	0.246542
0	H	0.888962	0.659119	0.249739
0	H	0.350847	0.232163	0.243657
0	H	0.445214	0.455211	0.580028
0	H	0.556194	0.99213	0.580109
0	H	0.0200627	0.566687	0.580654
0	H	0.045163	0.864662	0.834287
0	H	0.145817	0.18472	0.834782
0	H	0.828506	0.966472	0.836958
0	H	0.712733	0.19681	0.165594
0	H	0.815502	0.518193	0.167972
0	H	0.492369	0.300288	0.164238
0	H	0.37819	0.528926	0.499773
0	H	0.48129	0.850496	0.501673
0	H	0.161789	0.634801	0.50193
0	H	0.126042	0.886337	0.809244
0	H	0.125219	0.244584	0.810598
0	H	0.768653	0.885526	0.813068
0	H	0.793753	0.218457	0.142405
0	H	0.793818	0.577368	0.145787
0	H	0.432485	0.219472	0.139564
0	H	0.459088	0.55019	0.476221
0	H	0.46069	0.91029	0.477172
0	H	0.102012	0.553931	0.477404
0	H	0.090707	0.784591	0.709676
0	H	0.227388	0.311216	0.711439
0	H	0.701886	0.920222	0.713553
0	H	0.759063	0.115891	0.0454451
0	H	0.896281	0.646404	0.0485646
0	H	0.365319	0.254748	0.0425921
0	H	0.423817	0.447867	0.378389
0	H	0.563079	0.977009	0.378624
0	H	0.0349777	0.588997	0.379426
0	H	0.0539861	0.826502	0.657304
0	H	0.184547	0.23261	0.658147
0	H	0.780552	0.956606	0.66023
0	H	0.722923	0.157514	0.990004
0	H	0.854552	0.568545	0.992601
0	H	0.443784	0.291364	0.988239
0	H	0.387831	0.489891	0.323839
0	H	0.520423	0.898376	0.325192
0	H	0.113527	0.625417	0.32548
0	H	0.9519	0.754996	0.751874
0	H	0.25508	0.200843	0.751151
0	H	0.812291	0.0591476	0.753227
0	H	0.620033	0.0867649	0.0828714
0	H	0.925497	0.536771	0.0843624
0	H	0.476013	0.393492	0.082164
0	H	0.284988	0.419178	0.416672
0	H	0.590793	0.866703	0.418523
0	H	0.145667	0.727754	0.419238
0	H	0.974441	0.707695	0.676284
0	H	0.303255	0.271381	0.67696
0	H	0.741834	0.0361191	0.678542
0	H	0.643045	0.038835	0.0104091
0	H	0.97339	0.608245	0.0122808
0	H	0.404938	0.370667	0.00947961
0	H	0.307753	0.371188	0.343691
0	H	0.639181	0.937529	0.344878
0	H	0.0749065	0.705028	0.345521
0	H	0.019974	0.683215	0.832744
0	H	0.328581	0.340486	0.834983
0	H	0.672309	0.991648	0.836193
0	H	0.686844	0.0152068	0.169954
0	H	0.997227	0.675389	0.172551
0	H	0.336805	0.326316	0.168127
0	H	0.351346	0.346929	0.502807
0	H	0.66411	0.00617371	0.503216
0	H	0.00604657	0.660599	0.503812
0	H	0.939382	0.662462	0.857639
0	H	0.347826	0.279629	0.858402
0	H	0.732886	0.0722048	0.859664
0	H	0.606164	0.99521	0.19236
0	H	0.0173872	0.614961	0.193786
0	H	0.398156	0.406698	0.19195
0	H	0.27084	0.327325	0.525451
0	H	0.683078	0.945092	0.526764
0	H	0.0673351	0.741066	0.527548
0	H	0.974723	0.762691	0.96056
0	H	0.246746	0.214518	0.959931
0	H	0.798172	0.0372964	0.962218
0	H	0.641649	0.0965169	0.292285
0	H	0.915979	0.547748	0.293814
0	H	0.463177	0.370426	0.291579
0	H	0.306808	0.42855	0.625864
0	H	0.581741	0.880136	0.627602
0	H	0.132117	0.705097	0.628342
0	H	0.0122965	0.720864	0.00940333
0	H	0.289933	0.293716	0.0108531
0	H	0.718781	0.000420892	0.0124894
0	H	0.678192	0.0544913	0.344624
0	H	0.958158	0.626374	0.347049
0	H	0.384085	0.333733	0.343106
0	H	0.342979	0.386114	0.677928
0	H	0.624853	0.959219	0.678809
0	H	0.0528477	0.668356	0.679344
0	H	0.972317	0.900309	0.280559
0	H	0.111043	0.0742524	0.280764
0	H	0.938124	0.0417994	0.282698
0	H	0.638223	0.233626	0.611642
0	H	0.777942	0.406347	0.613377
0	H	0.602511	0.372658	0.613834
0	H	0.304962	0.567353	0.947632
0	H	0.445009	0.741489	0.946745
0	H	0.271649	0.70867	0.949258
0	H	0.0143534	0.912097	0.398445
0	H	0.103217	0.106745	0.399331
0	H	0.907278	0.0013871	0.401704
0	H	0.679154	0.24356	0.73021
0	H	0.768257	0.43667	0.732705
0	H	0.570529	0.329692	0.730524
0	H	0.346817	0.577348	0.0650927
0	H	0.43539	0.77236	0.0655498
0	H	0.239378	0.667727	0.0674367
0	H	0.947408	0.793448	0.475156
0	H	0.225848	0.153945	0.465271
0	H	0.858129	0.0717082	0.473775
0	H	0.60687	0.122449	0.802403
0	H	0.889503	0.486004	0.804778
0	H	0.520835	0.39994	0.805121
0	H	0.273832	0.456153	0.137538
0	H	0.556511	0.822413	0.137846
0	H	0.19087	0.740685	0.136546
0	H	0.0313773	0.82188	0.4726
0	H	0.19755	0.209228	0.472287
0	H	0.801626	0.987923	0.475669
0	H	0.691081	0.152297	0.805524
0	H	0.859858	0.540222	0.808793
0	H	0.465869	0.315772	0.805374
0	H	0.357951	0.485493	0.140128
0	H	0.527096	0.876844	0.140285
0	H	0.136062	0.656586	0.14063
0	H	0.975731	0.743545	0.427045
0	H	0.274413	0.233127	0.418922
0	H	0.779316	0.0427256	0.42653
0	H	0.637666	0.0742035	0.756512
0	H	0.937986	0.565515	0.759513
0	H	0.441851	0.369734	0.757985
0	H	0.30401	0.407529	0.0910536
0	H	0.605153	0.901537	0.0911115
0	H	0.111676	0.709485	0.089511
0	H	0.180358	0.840996	0.263564
0	H	0.178006	0.34347	0.271901
0	H	0.668955	0.836868	0.27293
0	H	0.841772	0.16852	0.601443
0	H	0.845577	0.675346	0.606145
0	H	0.333231	0.165695	0.597179
0	H	0.507199	0.50122	0.936272
0	H	0.511124	0.0102914	0.93534
0	H	0.00260798	0.505518	0.937363
0	H	0.247258	0.913624	0.218936
0	H	0.108081	0.342278	0.225649
0	H	0.670712	0.768686	0.22573
0	H	0.910485	0.239057	0.555639
0	H	0.776657	0.675255	0.557776
0	H	0.337994	0.0986988	0.552381
0	H	0.576129	0.571498	0.890094
0	H	0.441189	0.00868289	0.88818
0	H	0.00298421	0.436668	0.890022
0	H	0.236445	0.0193176	0.296973
0	H	0.998135	0.223677	0.297771
0	H	0.786062	0.774323	0.298633
0	H	0.903425	0.348183	0.63052
0	H	0.66456	0.559648	0.630156
0	H	0.452235	0.105953	0.627013
0	H	0.567029	0.680595	0.961967
0	H	0.330184	0.89543	0.962242
0	H	0.117588	0.44051	0.962855
0	H	0.245201	0.0692676	0.469304
0	H	0.944378	0.182522	0.468012
0	H	0.825751	0.760011	0.469022
0	H	0.917842	0.401075	0.802004
0	H	0.609258	0.521862	0.800224
0	H	0.495313	0.0973998	0.797857
0	H	0.581461	0.734635	0.132442
0	H	0.276622	0.854119	0.132469
0	H	0.156506	0.425112	0.133223
0	H	0.216087	0.00239769	0.632063
0	H	0.00831457	0.219393	0.633888
0	H	0.790934	0.789236	0.634702
0	H	0.889625	0.335879	0.966601
0	H	0.672654	0.558378	0.966746
0	H	0.463561	0.131921	0.961248
0	H	0.555025	0.670918	0.298395
0	H	0.341511	0.887239	0.297719
0	H	0.121906	0.454383	0.299106
0	H	0.180826	0.885979	0.619643
0	H	0.125419	0.300089	0.626771
0	H	0.714387	0.83015	0.627497
0	H	0.849993	0.218485	0.957077
0	H	0.790833	0.634587	0.960539
0	H	0.385919	0.171407	0.951448
0	H	0.517165	0.553843	0.291232
0	H	0.459602	0.963845	0.289928
0	H	0.0463397	0.496492	0.291981
0	H	0.172181	0.835736	0.446448
0	H	0.179409	0.342078	0.455958
0	H	0.673621	0.84344	0.45651
0	H	0.836611	0.165538	0.784942
0	H	0.84628	0.673207	0.789743
0	H	0.341654	0.178824	0.780124
0	H	0.504032	0.49972	0.120379
0	H	0.513632	0.00531577	0.118928
0	H	0.00649519	0.511152	0.121085
