#******************************************
#
# CIF file created by Zeo++
# Zeo++ is an open source package to
# analyze microporous materials
#
#*******************************************

_cell_length_a		24.8442(0)
_cell_length_b		11.7264(0)
_cell_length_c		19.4759(0)
_cell_angle_alpha		90(0)
_cell_angle_beta		102.912(0)
_cell_angle_gamma		90(0)

_symmetry_space_group_name_H-M		'P1'
_symmetry_Int_Tables_number		1
_symmetry_cell_setting		Monoclinic

loop_
_symmetry_equiv_pos_as_xyz
'+x,+y,+z'

loop_
_atom_site_label
_atom_site_type_symbol
_atom_site_fract_x
_atom_site_fract_y
_atom_site_fract_z
0	O	0.169831	0.45946	0.620527
0	O	0.824721	0.458015	0.892971
0	O	0.825365	0.603111	0.392852
0	O	0.171083	0.603686	0.120003
0	O	0.670161	0.962039	0.619276
0	O	0.324421	0.96094	0.894579
0	O	0.325254	0.100348	0.393963
0	O	0.671182	0.100858	0.118505
0	N	0.172237	0.270008	0.582351
0	N	0.823118	0.268868	0.931958
0	N	0.823262	0.792646	0.430854
0	N	0.172575	0.79285	0.0810595
0	N	0.672366	0.772023	0.582462
0	N	0.322856	0.771154	0.93206
0	N	0.323229	0.290413	0.430675
0	N	0.672739	0.290626	0.0809918
0	O	0.0611876	0.0991498	0.542466
0	O	0.934702	0.099203	0.970963
0	O	0.934387	0.962901	0.470764
0	O	0.0609523	0.962306	0.0421516
0	O	0.56138	0.599007	0.542506
0	O	0.434349	0.598984	0.970992
0	O	0.434247	0.463077	0.470702
0	O	0.56126	0.462769	0.0420603
0	O	0.187687	0.94707	0.472779
0	O	0.809154	0.945767	0.0400083
0	O	0.807936	0.115311	0.540308
0	O	0.186467	0.115955	0.973136
0	O	0.687494	0.448657	0.471211
0	O	0.309464	0.447505	0.0421044
0	O	0.308138	0.613577	0.541951
0	O	0.686201	0.614225	0.971002
0	N	0.171121	0.190645	0.471201
0	N	0.825527	0.189422	0.0433096
0	N	0.82447	0.871761	0.542092
0	N	0.170163	0.8723	0.969712
0	N	0.67085	0.69215	0.471323
0	N	0.325665	0.691153	0.0433912
0	N	0.324786	0.3701	0.541879
0	N	0.66999	0.370584	0.969663
0	N	0.977458	0.234944	0.396869
0	N	0.0196461	0.236319	0.11515
0	N	0.0181123	0.826988	0.616286
0	N	0.976015	0.825231	0.897936
0	N	0.477161	0.737832	0.398846
0	N	0.519817	0.738977	0.113222
0	N	0.518464	0.324147	0.614295
0	N	0.475786	0.32277	0.899834
0	N	0.994975	0.160366	0.452558
0	N	0.00160261	0.161763	0.0595603
0	N	0.000645788	0.901459	0.560523
0	N	0.994062	0.899773	0.953542
0	N	0.49429	0.66299	0.454494
0	N	0.502113	0.664123	0.0577009
0	N	0.501378	0.398867	0.558579
0	N	0.493497	0.397638	0.955346
0	C	0.143646	0.243478	0.519164
0	C	0.852348	0.242776	0.99484
0	C	0.851889	0.818916	0.494067
0	C	0.143347	0.818908	0.0181701
0	C	0.643571	0.74484	0.519483
0	C	0.352298	0.744275	0.994707
0	C	0.352023	0.317427	0.493679
0	C	0.643324	0.31749	0.0183292
0	C	0.0828538	0.275915	0.490958
0	C	0.913146	0.27617	0.0221399
0	C	0.91264	0.786201	0.522248
0	C	0.0825591	0.785473	0.990878
0	C	0.582705	0.776844	0.491579
0	C	0.413207	0.777013	0.0216818
0	C	0.412882	0.285229	0.521583
0	C	0.582423	0.284786	0.991334
0	C	0.907281	0.298823	0.29645
0	C	0.0908413	0.299878	0.214643
0	C	0.0882356	0.763133	0.716763
0	C	0.9048	0.761702	0.798447
0	C	0.407551	0.803984	0.298611
0	C	0.590459	0.804745	0.21253
0	C	0.588021	0.258009	0.714589
0	C	0.405124	0.25696	0.800559
0	C	0.141537	0.521263	0.563878
0	C	0.853565	0.520721	0.948847
0	C	0.85372	0.541062	0.449345
0	C	0.142229	0.540924	0.0641651
0	C	0.641572	0.0230088	0.562425
0	C	0.353615	0.0226117	0.950722
0	C	0.35385	0.0392186	0.450735
0	C	0.642024	0.0391704	0.0623516
0	C	0.139272	0.11567	0.414564
0	C	0.857966	0.113437	0.0989224
0	C	0.856371	0.946843	0.598642
0	C	0.137705	0.948279	0.914114
0	C	0.638828	0.617837	0.414444
0	C	0.358293	0.616114	0.0994049
0	C	0.356839	0.444472	0.598718
0	C	0.637378	0.445619	0.91364
0	C	0.0912838	0.485243	0.519998
0	C	0.904134	0.48523	0.992189
0	C	0.904046	0.576844	0.493171
0	C	0.0916682	0.576379	0.0207868
0	C	0.591023	0.986672	0.519338
0	C	0.404472	0.986608	0.993166
0	C	0.404441	0.0753897	0.493808
0	C	0.591197	0.0751756	0.019831
0	C	0.0856769	0.34616	0.613771
0	C	0.908882	0.345198	0.898666
0	C	0.909704	0.715878	0.399429
0	C	0.0868399	0.716259	0.114321
0	C	0.585984	0.849098	0.61405
0	C	0.408486	0.848177	0.898599
0	C	0.409545	0.212919	0.399122
0	C	0.587083	0.213534	0.114384
0	C	0.927297	0.225719	0.358748
0	C	0.0701798	0.227376	0.152223
0	C	0.068249	0.836267	0.654477
0	C	0.925472	0.83415	0.860897
0	C	0.426729	0.731234	0.361303
0	C	0.570583	0.73249	0.149763
0	C	0.568874	0.330786	0.651904
0	C	0.425007	0.329194	0.863339
0	C	0.149366	0.342582	0.629906
0	C	0.84523	0.341218	0.883612
0	C	0.84602	0.719792	0.383327
0	C	0.150491	0.720412	0.129389
0	C	0.649668	0.845546	0.629705
0	C	0.344845	0.844455	0.88406
0	C	0.345874	0.21671	0.383466
0	C	0.650724	0.217338	0.128977
0	C	0.0468339	0.173558	0.496802
0	C	0.949347	0.174156	0.0162324
0	C	0.948741	0.888428	0.516382
0	C	0.0463292	0.887409	0.996852
0	C	0.546715	0.674477	0.497707
0	C	0.449314	0.674946	0.0154257
0	C	0.448913	0.387513	0.515452
0	C	0.546303	0.386831	0.997617
0	C	0.0660952	0.555756	0.464052
0	C	0.929825	0.556564	0.0474207
0	C	0.929289	0.506026	0.548932
0	C	0.0659907	0.505023	0.965567
0	C	0.565389	0.0567029	0.463373
0	C	0.430693	0.0572458	0.0484713
0	C	0.430088	0.00513003	0.549648
0	C	0.565017	0.00453785	0.964511
0	C	0.169572	0.397063	0.757988
0	C	0.823868	0.394346	0.755287
0	C	0.826125	0.66501	0.255342
0	C	0.171722	0.667569	0.25778
0	C	0.672742	0.903661	0.757339
0	C	0.320741	0.901615	0.756297
0	C	0.323028	0.158335	0.255903
0	C	0.674714	0.160482	0.256819
0	C	0.0656072	0.374447	0.535212
0	C	0.929686	0.374255	0.977016
0	C	0.929787	0.687577	0.477983
0	C	0.0660637	0.68729	0.0359648
0	C	0.565557	0.876093	0.535376
0	C	0.429706	0.875787	0.977043
0	C	0.429955	0.185934	0.477791
0	C	0.565916	0.185961	0.0359254
0	C	0.185829	0.369533	0.829406
0	C	0.806953	0.366101	0.684043
0	C	0.809981	0.692288	0.183877
0	C	0.188592	0.695994	0.329007
0	C	0.688939	0.877065	0.828909
0	C	0.303999	0.87451	0.684853
0	C	0.306885	0.184703	0.184298
0	C	0.691473	0.187748	0.328242
0	C	0.853487	0.263353	0.261458
0	C	0.144707	0.2637	0.248926
0	C	0.142063	0.798443	0.751745
0	C	0.850991	0.798104	0.764096
0	C	0.353906	0.768705	0.26291
0	C	0.644144	0.768624	0.247573
0	C	0.641707	0.2931	0.750269
0	C	0.351476	0.293234	0.76547
0	C	0.881032	0.144533	0.36517
0	C	0.116327	0.146703	0.144559
0	C	0.114523	0.91747	0.648108
0	C	0.879316	0.91478	0.868601
0	C	0.379479	0.653138	0.368278
0	C	0.617629	0.654615	0.141675
0	C	0.616143	0.408865	0.644967
0	C	0.377942	0.406993	0.871469
0	C	0.226331	0.138186	0.500928
0	C	0.770138	0.137156	0.0142486
0	C	0.769235	0.924169	0.51244
0	C	0.225541	0.924626	0.99879
0	C	0.726129	0.639673	0.500543
0	C	0.270273	0.63862	0.0148488
0	C	0.269482	0.422519	0.512735
0	C	0.725384	0.423105	0.998228
0	C	0.173179	0.314956	0.706804
0	C	0.820662	0.312924	0.807015
0	C	0.822263	0.74719	0.306392
0	C	0.175028	0.748796	0.205982
0	C	0.673548	0.819015	0.706694
0	C	0.320221	0.81747	0.807333
0	C	0.32203	0.243074	0.306441
0	C	0.675324	0.244435	0.205697
0	C	0.933541	0.388567	0.270686
0	C	0.0650734	0.389588	0.241158
0	C	0.0619469	0.673362	0.742448
0	C	0.930476	0.671795	0.771985
0	C	0.434396	0.892901	0.272932
0	C	0.564159	0.893826	0.238857
0	C	0.561135	0.169096	0.7402
0	C	0.431348	0.167711	0.774277
0	C	0.195142	0.206967	0.727434
0	C	0.798323	0.204977	0.787114
0	C	0.800123	0.854967	0.285564
0	C	0.197438	0.856721	0.225817
0	C	0.692539	0.709152	0.727882
0	C	0.300849	0.707664	0.786668
0	C	0.302894	0.352782	0.285103
0	C	0.694799	0.35422	0.226274
0	C	0.826417	0.316686	0.199705
0	C	0.172256	0.316011	0.310796
0	C	0.169144	0.744863	0.813405
0	C	0.823452	0.745976	0.70216
0	C	0.32783	0.820611	0.200204
0	C	0.670714	0.819548	0.310377
0	C	0.667797	0.240932	0.812875
0	C	0.324913	0.242439	0.702626
0	C	0.166059	0.625734	0.552841
0	C	0.829237	0.625528	0.959608
0	C	0.829177	0.436575	0.460278
0	C	0.166515	0.436026	0.0534878
0	C	0.666112	0.126909	0.550254
0	C	0.329345	0.126867	0.962795
0	C	0.329278	0.935316	0.462814
0	C	0.666264	0.934836	0.0503674
0	C	0.21955	0.0176551	0.528298
0	C	0.776499	0.0173128	0.985679
0	C	0.775973	0.0446347	0.484929
0	C	0.219112	0.0443631	0.027454
0	C	0.719585	0.518431	0.527018
0	C	0.276574	0.517989	0.98735
0	C	0.275945	0.54378	0.486246
0	C	0.719068	0.543702	0.0257585
0	C	0.206608	0.260967	0.849954
0	C	0.785911	0.257459	0.664234
0	C	0.789036	0.800663	0.163137
0	C	0.209703	0.804611	0.348743
0	C	0.706668	0.766805	0.850089
0	C	0.285985	0.764206	0.664191
0	C	0.28901	0.29482	0.162964
0	C	0.709602	0.298024	0.348809
0	C	0.134059	0.993904	0.441459
0	C	0.862935	0.992426	0.0707554
0	C	0.861582	0.0684786	0.571561
0	C	0.132713	0.0692748	0.942299
0	C	0.633748	0.495705	0.440819
0	C	0.363292	0.49466	0.0719608
0	C	0.36191	0.566523	0.57222
0	C	0.632388	0.567091	0.941076
0	C	0.853691	0.405284	0.172799
0	C	0.145482	0.404638	0.338422
0	C	0.141857	0.656174	0.840205
0	C	0.850161	0.657226	0.674559
0	C	0.355767	0.908151	0.173342
0	C	0.643328	0.90731	0.33788
0	C	0.639839	0.153322	0.839646
0	C	0.35225	0.154584	0.675139
0	C	0.212041	0.180434	0.799015
0	C	0.780786	0.177672	0.715722
0	C	0.783322	0.881234	0.213929
0	C	0.214937	0.88419	0.297188
0	C	0.709226	0.683468	0.799577
0	C	0.283611	0.681433	0.715106
0	C	0.286255	0.378224	0.213367
0	C	0.712056	0.380601	0.297809
0	C	0.906242	0.441487	0.207931
0	C	0.0929062	0.441671	0.303952
0	C	0.0892715	0.620165	0.805097
0	C	0.902651	0.619868	0.709139
0	C	0.407946	0.944877	0.20946
0	C	0.591164	0.945027	0.302353
0	C	0.587613	0.116833	0.803566
0	C	0.404346	0.116618	0.710749
0	C	0.139938	0.694139	0.496873
0	C	0.855852	0.694688	0.0148785
0	C	0.855375	0.367824	0.516021
0	C	0.139902	0.366826	0.998241
0	C	0.639609	0.19473	0.494187
0	C	0.356417	0.195204	0.0182545
0	C	0.355818	0.867229	0.518724
0	C	0.639228	0.866486	0.9949
0	C	0.0902409	0.659365	0.452239
0	C	0.905864	0.660464	0.0590235
0	C	0.905151	0.402345	0.560598
0	C	0.0899224	0.401062	0.954033
0	C	0.589471	0.159906	0.450598
0	C	0.406864	0.160728	0.0612235
0	C	0.406002	0.901865	0.562292
0	C	0.588825	0.900991	0.951834
0	C	0.83388	0.165958	0.299716
0	C	0.163842	0.16686	0.209794
0	C	0.161705	0.895819	0.7135
0	C	0.831875	0.894949	0.803244
0	C	0.333246	0.673178	0.301612
0	C	0.664279	0.673499	0.208054
0	C	0.662407	0.388595	0.711575
0	C	0.33135	0.388359	0.805001
0	H	0.0763358	0.305854	0.434686
0	H	0.920055	0.306795	0.0783192
0	H	0.919151	0.756257	0.578521
0	H	0.0756418	0.754926	0.934682
0	H	0.575994	0.806097	0.435138
0	H	0.420344	0.806894	0.0780484
0	H	0.419568	0.255996	0.578028
0	H	0.575286	0.254966	0.934952
0	H	0.0983561	0.152642	0.390184
0	H	0.898987	0.150278	0.122983
0	H	0.89728	0.909841	0.623018
0	H	0.0966871	0.911421	0.890068
0	H	0.597854	0.654897	0.39052
0	H	0.399306	0.653288	0.123044
0	H	0.397805	0.407388	0.622647
0	H	0.596359	0.408474	0.890009
0	H	0.162761	0.114228	0.371754
0	H	0.835036	0.110618	0.142267
0	H	0.832905	0.94848	0.641469
0	H	0.160612	0.951131	0.870749
0	H	0.662091	0.617056	0.371425
0	H	0.335522	0.614027	0.1429
0	H	0.33358	0.445371	0.641737
0	H	0.660137	0.447667	0.870135
0	H	0.0692005	0.263345	0.627188
0	H	0.925299	0.262357	0.885217
0	H	0.926268	0.798588	0.385976
0	H	0.0703639	0.799008	0.127826
0	H	0.569615	0.766587	0.628123
0	H	0.424691	0.765566	0.884429
0	H	0.425985	0.295354	0.385028
0	H	0.570834	0.296088	0.128569
0	H	0.0712649	0.410848	0.646906
0	H	0.922769	0.409723	0.864978
0	H	0.924023	0.651066	0.366293
0	H	0.0729893	0.651604	0.147963
0	H	0.571785	0.914425	0.646976
0	H	0.422209	0.913293	0.865125
0	H	0.423687	0.147506	0.366203
0	H	0.573361	0.14834	0.147811
0	H	0.0272539	0.528921	0.429613
0	H	0.968917	0.530114	0.0814666
0	H	0.968182	0.532688	0.58334
0	H	0.0269118	0.531475	0.931494
0	H	0.526242	0.0298783	0.429639
0	H	0.470101	0.0306547	0.0817075
0	H	0.469262	0.0318199	0.583384
0	H	0.525636	0.0311399	0.931217
0	H	0.15408	0.482413	0.741693
0	H	0.839546	0.479768	0.771043
0	H	0.841716	0.579776	0.271767
0	H	0.156009	0.582151	0.242103
0	H	0.659324	0.990073	0.740531
0	H	0.334361	0.98807	0.772722
0	H	0.336533	0.0720194	0.272812
0	H	0.661027	0.074036	0.240482
0	H	0.0194905	0.382288	0.521404
0	H	0.975789	0.38237	0.990061
0	H	0.975898	0.679596	0.491762
0	H	0.0199628	0.679086	0.0229039
0	H	0.519432	0.88358	0.521791
0	H	0.475825	0.883398	0.989843
0	H	0.476081	0.178323	0.491378
0	H	0.519802	0.1783	0.0230795
0	H	0.18177	0.432578	0.869034
0	H	0.810678	0.428604	0.643967
0	H	0.81424	0.62919	0.144372
0	H	0.18478	0.633611	0.36911
0	H	0.687193	0.942273	0.868196
0	H	0.305528	0.93931	0.645246
0	H	0.308773	0.119429	0.145102
0	H	0.689872	0.123064	0.36789
0	H	0.894706	0.0542022	0.368662
0	H	0.102721	0.056316	0.140436
0	H	0.100856	0.00779772	0.644748
0	H	0.892947	0.00515319	0.872935
0	H	0.39223	0.562315	0.373968
0	H	0.604834	0.563844	0.135533
0	H	0.603407	0.499703	0.639396
0	H	0.390737	0.497753	0.877787
0	H	0.867184	0.161476	0.414515
0	H	0.129815	0.165192	0.095136
0	H	0.128324	0.900714	0.598712
0	H	0.865737	0.896004	0.917924
0	H	0.365107	0.674588	0.416692
0	H	0.63163	0.677145	0.0931477
0	H	0.630464	0.387563	0.596497
0	H	0.363874	0.3842	0.919908
0	H	0.249477	0.136617	0.457737
0	H	0.747585	0.134647	0.0579927
0	H	0.746142	0.92584	0.555674
0	H	0.248062	0.927317	0.955018
0	H	0.749263	0.639372	0.457325
0	H	0.247698	0.637409	0.0585969
0	H	0.246373	0.422737	0.555974
0	H	0.747951	0.424364	0.954472
0	H	0.25073	0.193155	0.543467
0	H	0.745248	0.192827	0.972524
0	H	0.744797	0.869114	0.469981
0	H	0.250461	0.868882	0.0404463
0	H	0.750506	0.693904	0.543555
0	H	0.245372	0.693363	0.972551
0	H	0.2451	0.368277	0.469736
0	H	0.750281	0.368305	0.0404979
0	H	0.97445	0.415991	0.298714
0	H	0.0241343	0.417687	0.213663
0	H	0.0210084	0.646099	0.714435
0	H	0.971346	0.643422	0.799567
0	H	0.475113	0.920393	0.301548
0	H	0.523442	0.922107	0.210716
0	H	0.520379	0.141799	0.711611
0	H	0.47201	0.139217	0.802484
0	H	0.199133	0.143669	0.687726
0	H	0.794549	0.142278	0.827233
0	H	0.795921	0.91831	0.325156
0	H	0.201293	0.919272	0.18565
0	H	0.694312	0.643827	0.688495
0	H	0.299227	0.642761	0.826339
0	H	0.300969	0.418163	0.324399
0	H	0.696488	0.418979	0.186539
0	H	0.784914	0.290641	0.172169
0	H	0.213778	0.289267	0.337845
0	H	0.21067	0.770783	0.840944
0	H	0.78197	0.772902	0.675072
0	H	0.286592	0.794228	0.171917
0	H	0.711944	0.79235	0.338234
0	H	0.709067	0.267153	0.841154
0	H	0.283706	0.269744	0.674756
0	H	0.204795	0.651179	0.587968
0	H	0.790345	0.650658	0.924695
0	H	0.790359	0.41137	0.425242
0	H	0.205381	0.410855	0.0884439
0	H	0.705244	0.152526	0.58449
0	H	0.290076	0.152364	0.928848
0	H	0.290094	0.909885	0.428627
0	H	0.705491	0.909285	0.0843931
0	H	0.198987	0.0181768	0.573087
0	H	0.796193	0.0189226	0.940158
0	H	0.796416	0.0439671	0.440033
0	H	0.199358	0.0425864	0.0729208
0	H	0.699367	0.51784	0.572113
0	H	0.295997	0.518453	0.941587
0	H	0.296017	0.544424	0.44102
0	H	0.699602	0.543189	0.0714865
0	H	0.259156	0.970888	0.542566
0	H	0.736887	0.970566	0.972037
0	H	0.736359	0.091388	0.470757
0	H	0.2587	0.0911888	0.0411989
0	H	0.759249	0.471819	0.540491
0	H	0.236963	0.471203	0.974461
0	H	0.236258	0.590343	0.472949
0	H	0.758675	0.590501	0.0387009
0	H	0.218408	0.238152	0.90588
0	H	0.773562	0.233952	0.608421
0	H	0.777326	0.823282	0.107176
0	H	0.222025	0.828265	0.404535
0	H	0.718291	0.744866	0.906102
0	H	0.273935	0.741762	0.608257
0	H	0.277423	0.316582	0.106923
0	H	0.721691	0.320599	0.404722
0	H	0.11839	0.933582	0.398001
0	H	0.87921	0.931141	0.113467
0	H	0.877339	0.128946	0.61491
0	H	0.116474	0.130562	0.899573
0	H	0.617702	0.436032	0.397153
0	H	0.379948	0.434214	0.11499
0	H	0.378056	0.62628	0.615809
0	H	0.615778	0.627517	0.898019
0	H	0.108264	0.990401	0.48093
0	H	0.888107	0.990211	0.0305395
0	H	0.887287	0.0717572	0.531979
0	H	0.107479	0.0714589	0.982445
0	H	0.608355	0.491661	0.480742
0	H	0.388113	0.491814	0.0313657
0	H	0.387194	0.57041	0.532174
0	H	0.607509	0.569965	0.981607
0	H	0.833424	0.446087	0.123427
0	H	0.166185	0.444771	0.38782
0	H	0.162154	0.615109	0.889479
0	H	0.829479	0.617242	0.625106
0	H	0.336327	0.947906	0.123285
0	H	0.663218	0.946416	0.387963
0	H	0.659312	0.113293	0.889604
0	H	0.33238	0.115587	0.625016
0	H	0.229731	0.0968321	0.8153
0	H	0.762822	0.094078	0.699969
0	H	0.765484	0.964659	0.197488
0	H	0.23296	0.967767	0.312877
0	H	0.724462	0.598361	0.816337
0	H	0.268083	0.596357	0.69873
0	H	0.270894	0.463207	0.196483
0	H	0.727675	0.465658	0.314105
0	H	0.926112	0.511416	0.18634
0	H	0.07343	0.511587	0.326121
0	H	0.0693964	0.550151	0.826598
0	H	0.922054	0.549792	0.687015
0	H	0.42816	0.0145346	0.188102
0	H	0.571392	0.014828	0.324221
0	H	0.567383	0.0471172	0.824844
0	H	0.424056	0.0466774	0.688921
0	H	0.158676	0.775831	0.487803
0	H	0.837253	0.776632	0.023822
0	H	0.836641	0.286073	0.524969
0	H	0.15847	0.284806	0.989381
0	H	0.658414	0.275908	0.48419
0	H	0.337804	0.276624	0.0283063
0	H	0.337007	0.786003	0.52862
0	H	0.657819	0.785002	0.984928
0	H	0.0705053	0.713421	0.40851
0	H	0.925998	0.715192	0.102229
0	H	0.924947	0.348007	0.604148
0	H	0.0697995	0.346311	0.91084
0	H	0.569407	0.213632	0.406894
0	H	0.42739	0.214969	0.104469
0	H	0.426099	0.847918	0.605869
0	H	0.568329	0.846748	0.908584
0	H	0.794592	0.18745	0.314729
0	H	0.203009	0.188434	0.194498
0	H	0.200942	0.874184	0.698398
0	H	0.792633	0.873517	0.818385
0	H	0.293614	0.696237	0.315255
0	H	0.703774	0.696547	0.194045
0	H	0.701986	0.365378	0.697845
0	H	0.291799	0.365413	0.818888
0	H	0.825338	0.0891961	0.266018
0	H	0.172408	0.0895425	0.242996
0	H	0.170354	0.972521	0.74724
0	H	0.823453	0.972349	0.770099
0	H	0.324915	0.595411	0.268808
0	H	0.672658	0.59527	0.240418
0	H	0.670848	0.466301	0.74442
0	H	0.323077	0.466647	0.77268
0	H	0.971363	0.0879632	0.459575
0	H	0.024848	0.0886741	0.0526443
0	H	0.0242631	0.973858	0.553511
0	H	0.970785	0.972783	0.960509
0	H	0.470745	0.590137	0.460711
0	H	0.525349	0.590712	0.0514789
0	H	0.524924	0.471745	0.552369
0	H	0.470242	0.471	0.961601
