#******************************************
#
# CIF file created by Zeo++
# Zeo++ is an open source package to
# analyze microporous materials
#
#*******************************************

_cell_length_a		18.5623(0)
_cell_length_b		17.5695(0)
_cell_length_c		17.8609(0)
_cell_angle_alpha		89.6087(0)
_cell_angle_beta		73.228(0)
_cell_angle_gamma		87.8238(0)

_symmetry_space_group_name_H-M		'P1'
_symmetry_Int_Tables_number		1
_symmetry_cell_setting		Triclinic

loop_
_symmetry_equiv_pos_as_xyz
'+x,+y,+z'

loop_
_atom_site_label
_atom_site_type_symbol
_atom_site_fract_x
_atom_site_fract_y
_atom_site_fract_z
0	Cl	0.916598	0.791342	0.506312
0	Cl	0.868942	0.263771	0.556737
0	Cl	0.252825	0.477441	0.770092
0	Cl	0.533265	0.577311	0.29163
0	Cl	0.828145	0.875178	0.638681
0	Cl	0.957879	0.180377	0.424251
0	Cl	0.347303	0.395332	0.640578
0	Cl	0.438565	0.65949	0.420984
0	C	0.0283286	0.542909	0.797753
0	C	0.757753	0.511911	0.264549
0	H	0.0246131	0.50811	0.850877
0	H	0.761516	0.546549	0.211321
0	H	0.0222584	0.603292	0.8187
0	H	0.764005	0.451469	0.243763
0	C	0.965415	0.526988	0.76372
0	C	0.820514	0.528123	0.298717
0	C	0.920066	0.463609	0.786405
0	C	0.865853	0.59149	0.275897
0	H	0.931896	0.425227	0.829981
0	H	0.854137	0.629658	0.232099
0	C	0.860715	0.44849	0.755379
0	C	0.925084	0.606822	0.307038
0	C	0.844411	0.498072	0.699445
0	C	0.941192	0.557528	0.363301
0	H	0.798958	0.487092	0.673687
0	H	0.986437	0.568791	0.389268
0	C	0.888103	0.56084	0.676071
0	C	0.897529	0.494761	0.386785
0	C	0.885362	0.622222	0.61826
0	C	0.900107	0.433622	0.444904
0	H	0.830324	0.653521	0.632622
0	H	0.955213	0.402493	0.430961
0	H	0.894729	0.598265	0.558495
0	H	0.890328	0.457827	0.504632
0	C	0.950332	0.673788	0.621628
0	C	0.835443	0.381762	0.44129
0	C	0.948012	0.574159	0.707917
0	C	0.83784	0.481152	0.354708
0	C	0.923781	0.75234	0.654661
0	C	0.862323	0.303274	0.408321
0	H	0.888915	0.749061	0.716144
0	H	0.897392	0.306653	0.346896
0	C	0.976821	0.819492	0.631082
0	C	0.809328	0.236042	0.43147
0	C	0.0493484	0.803683	0.569457
0	C	0.736619	0.251675	0.492898
0	H	0.0883852	0.850527	0.557196
0	H	0.697693	0.204739	0.504924
0	C	0.0685185	0.736917	0.531524
0	C	0.717168	0.318377	0.530917
0	C	0.207846	0.737904	0.506395
0	C	0.577902	0.316882	0.555625
0	C	0.014718	0.673916	0.54326
0	C	0.770683	0.381631	0.519369
0	C	0.144371	0.721462	0.473234
0	C	0.641159	0.333549	0.589041
0	H	0.148135	0.755065	0.419353
0	H	0.637364	0.299915	0.642907
0	H	0.14973	0.660634	0.453838
0	H	0.635527	0.394369	0.608516
0	C	0.25471	0.799937	0.481417
0	C	0.531288	0.254613	0.580281
0	H	0.244141	0.836827	0.436085
0	H	0.541884	0.217664	0.625554
0	C	0.314243	0.81534	0.512092
0	C	0.471969	0.239045	0.549344
0	C	0.328083	0.768602	0.571395
0	C	0.45816	0.285793	0.490036
0	H	0.372717	0.780685	0.597952
0	H	0.413714	0.273557	0.46327
0	C	0.283561	0.706795	0.596359
0	C	0.502467	0.3478	0.465344
0	C	0.224567	0.692122	0.563562
0	C	0.561191	0.362677	0.498466
0	C	0.285359	0.647125	0.656087
0	C	0.50067	0.407502	0.405647
0	H	0.273808	0.672464	0.71556
0	H	0.512402	0.382221	0.346134
0	H	0.340748	0.616777	0.644123
0	H	0.445212	0.437708	0.417547
0	C	0.222032	0.593981	0.651503
0	C	0.563816	0.460793	0.410464
0	C	0.250883	0.515591	0.619588
0	C	0.534826	0.539191	0.442241
0	H	0.287498	0.518819	0.558745
0	H	0.498027	0.535929	0.502987
0	C	0.198948	0.447386	0.641491
0	C	0.586797	0.607372	0.420438
0	C	0.124967	0.462448	0.701115
0	C	0.660805	0.592354	0.360839
0	H	0.0863758	0.415267	0.711884
0	H	0.699258	0.639662	0.349929
0	C	0.104412	0.528829	0.739556
0	C	0.681557	0.525906	0.322584
0	C	0.156514	0.593239	0.728748
0	C	0.629676	0.461305	0.33349
0	C	0.814976	0.377736	0.783866
0	C	0.970945	0.677442	0.278249
0	C	0.780687	0.384727	0.873154
0	C	0.00489428	0.670291	0.188918
0	H	0.752946	0.440881	0.889563
0	H	0.0320455	0.613896	0.172466
0	H	0.823293	0.376824	0.904574
0	H	0.962178	0.67874	0.157723
0	H	0.738341	0.341986	0.89546
0	H	0.0476385	0.71261	0.166406
0	C	0.868195	0.306448	0.763249
0	C	0.917874	0.748824	0.298977
0	H	0.913007	0.307014	0.791713
0	H	0.8727	0.748168	0.271019
0	H	0.89496	0.30225	0.70011
0	H	0.891582	0.753283	0.362183
0	H	0.837175	0.254414	0.781774
0	H	0.948895	0.800774	0.279983
0	C	0.750668	0.369368	0.746471
0	C	0.0355144	0.685712	0.315282
0	H	0.720838	0.316897	0.766
0	H	0.0655578	0.737992	0.295362
0	H	0.771277	0.367217	0.682316
0	H	0.0151303	0.688186	0.379444
0	H	0.70907	0.416908	0.762352
0	H	0.076869	0.637951	0.29949
0	C	0.905774	0.815023	0.603892
0	C	0.880166	0.240442	0.459014
0	C	0.985389	0.876136	0.694315
0	C	0.800987	0.179794	0.36782
0	C	0.920582	0.873914	0.770467
0	C	0.866333	0.181768	0.292091
0	H	0.917658	0.818093	0.798789
0	H	0.871144	0.238173	0.264912
0	H	0.86524	0.888939	0.763416
0	H	0.921067	0.164312	0.299384
0	H	0.928276	0.915775	0.812904
0	H	0.857747	0.141557	0.248663
0	C	0.990224	0.95722	0.66098
0	C	0.795419	0.0985651	0.400862
0	H	0.0104748	0.996237	0.697406
0	H	0.775753	0.0598609	0.363661
0	H	0.934575	0.980249	0.658977
0	H	0.850715	0.075266	0.403675
0	H	0.0284752	0.960208	0.601377
0	H	0.756399	0.095421	0.460015
0	C	0.0589161	0.853293	0.71413
0	C	0.727979	0.203523	0.347435
0	H	0.0619395	0.882242	0.767298
0	H	0.725654	0.176031	0.293216
0	H	0.109487	0.867666	0.667672
0	H	0.677029	0.188352	0.392948
0	H	0.0630577	0.791781	0.724417
0	H	0.723883	0.265314	0.338548
0	C	0.364194	0.882209	0.478899
0	C	0.422141	0.172028	0.582285
0	C	0.31514	0.956513	0.493747
0	C	0.471409	0.097858	0.567964
0	H	0.34913	0.00583763	0.471085
0	H	0.437475	0.0484624	0.59049
0	H	0.288845	0.965922	0.556428
0	H	0.498112	0.0883481	0.505367
0	H	0.270178	0.955829	0.465502
0	H	0.516045	0.098797	0.596635
0	C	0.399222	0.868366	0.390464
0	C	0.386409	0.186103	0.670573
0	H	0.426209	0.811392	0.37879
0	H	0.358921	0.242892	0.681821
0	H	0.442535	0.909379	0.365063
0	H	0.343358	0.1448	0.695829
0	H	0.357282	0.873398	0.357996
0	H	0.428027	0.181747	0.703485
0	C	0.428669	0.889934	0.516238
0	C	0.35817	0.163807	0.544319
0	H	0.468032	0.840207	0.503296
0	H	0.318614	0.213343	0.556749
0	H	0.408018	0.89569	0.580127
0	H	0.379324	0.157912	0.480472
0	H	0.461162	0.940193	0.493709
0	H	0.325781	0.113461	0.566746
0	C	0.267916	0.453883	0.671906
0	C	0.517938	0.600887	0.38984
0	C	0.19457	0.389618	0.577518
0	C	0.591159	0.665108	0.484457
0	C	0.122711	0.41009	0.553647
0	C	0.663346	0.644987	0.507871
0	H	0.119787	0.470568	0.538389
0	H	0.667014	0.58435	0.522265
0	H	0.0709508	0.398965	0.600033
0	H	0.71485	0.657066	0.461531
0	H	0.120776	0.376688	0.502738
0	H	0.665048	0.677824	0.559217
0	C	0.190315	0.308594	0.610972
0	C	0.59475	0.746205	0.451247
0	H	0.17584	0.268223	0.571526
0	H	0.610154	0.786471	0.490173
0	H	0.147731	0.304548	0.668014
0	H	0.636376	0.750372	0.393596
0	H	0.244476	0.288272	0.618701
0	H	0.540065	0.76665	0.444871
0	C	0.262192	0.392457	0.503803
0	C	0.52388	0.66174	0.558432
0	H	0.253271	0.356299	0.457437
0	H	0.531983	0.699427	0.604084
0	H	0.315046	0.370666	0.512866
0	H	0.470394	0.681358	0.549358
0	H	0.270818	0.450123	0.480002
0	H	0.517014	0.604331	0.583198
0	O	0.98691	0.639002	0.677941
0	O	0.799086	0.416218	0.384631
0	O	0.018781	0.625285	0.494276
0	O	0.766042	0.430555	0.568215
0	O	0.18602	0.627178	0.59403
0	O	0.599523	0.427823	0.468289
0	O	0.15008	0.642739	0.77744
0	O	0.63661	0.411393	0.285121
0	Cl	0.470137	0.0603979	0.355884
0	Cl	0.316161	0.993838	0.705223
0	Cl	0.557428	0.973463	0.225447
0	Cl	0.228812	0.0813635	0.835168
0	Cl	0.128178	0.385671	0.102682
0	Cl	0.657683	0.669009	0.959344
0	Cl	0.0452844	0.468332	0.238822
0	Cl	0.740514	0.586191	0.823296
0	C	0.357461	0.308137	0.0644835
0	C	0.428547	0.746879	0.997453
0	H	0.361653	0.247289	0.0453901
0	H	0.424464	0.807732	0.0165109
0	H	0.361831	0.34166	0.0104589
0	H	0.424206	0.713361	0.0514765
0	C	0.421054	0.32355	0.0978093
0	C	0.364897	0.731489	0.96422
0	C	0.466051	0.387297	0.0755941
0	C	0.320004	0.66768	0.986469
0	H	0.45414	0.42588	0.0322135
0	H	0.33205	0.629109	0.0297915
0	C	0.525242	0.402623	0.106824
0	C	0.260796	0.65225	0.955318
0	C	0.541199	0.353154	0.163073
0	C	0.244821	0.701553	0.89896
0	H	0.586198	0.364515	0.189418
0	H	0.199828	0.690092	0.872628
0	C	0.498516	0.289539	0.185259
0	C	0.287461	0.765178	0.876656
0	C	0.438918	0.275885	0.153035
0	C	0.346963	0.779052	0.908963
0	C	0.502751	0.227025	0.241411
0	C	0.283247	0.82749	0.820279
0	H	0.494778	0.24941	0.301533
0	H	0.291259	0.804925	0.760228
0	H	0.557952	0.195877	0.224941
0	H	0.228012	0.858582	0.836644
0	C	0.437491	0.175672	0.23853
0	C	0.348457	0.878941	0.823078
0	C	0.463289	0.0965694	0.206775
0	C	0.322607	0.958141	0.854518
0	H	0.498241	0.0984787	0.145214
0	H	0.287431	0.956324	0.915986
0	C	0.409738	0.0298776	0.231492
0	C	0.376323	0.0246666	0.829739
0	C	0.337114	0.0470423	0.29251
0	C	0.448901	0.00737618	0.768711
0	H	0.29725	0.000944948	0.30501
0	H	0.488666	0.0535663	0.755912
0	C	0.319	0.114142	0.330009
0	C	0.467084	0.940151	0.731481
0	C	0.37346	0.176575	0.317219
0	C	0.41277	0.877564	0.744579
0	C	0.243928	0.130851	0.38911
0	C	0.54218	0.923478	0.672396
0	H	0.240026	0.0965752	0.44263
0	H	0.546089	0.95771	0.618852
0	H	0.240204	0.19144	0.409037
0	H	0.545956	0.862872	0.652524
0	C	0.179297	0.116721	0.357062
0	C	0.606752	0.937731	0.704509
0	C	0.131923	0.0551072	0.381984
0	C	0.654054	0.999406	0.67964
0	H	0.143529	0.0167911	0.425721
0	H	0.642544	0.0375967	0.635762
0	C	0.0707644	0.0416937	0.353156
0	C	0.715043	0.0130196	0.708681
0	C	0.0550098	0.0911717	0.296812
0	C	0.730737	0.963643	0.765137
0	H	0.00830474	0.0816271	0.272428
0	H	0.777263	0.973369	0.789733
0	C	0.10042	0.152403	0.27152
0	C	0.685507	0.902245	0.79023
0	C	0.0977577	0.21378	0.213667
0	C	0.688256	0.84084	0.848032
0	H	0.0432687	0.246184	0.228954
0	H	0.742753	0.808457	0.832673
0	H	0.10549	0.189642	0.154262
0	H	0.680561	0.86495	0.907443
0	C	0.164185	0.263972	0.215258
0	C	0.621848	0.790627	0.846457
0	C	0.161892	0.164149	0.301439
0	C	0.624168	0.890338	0.760156
0	C	0.139921	0.34277	0.248714
0	C	0.646039	0.711751	0.813234
0	H	0.107055	0.340097	0.311159
0	H	0.678934	0.714265	0.750781
0	C	0.193829	0.409169	0.223933
0	C	0.592017	0.645459	0.838108
0	C	0.26504	0.392208	0.160968
0	C	0.520814	0.6626	0.901029
0	H	0.305166	0.438108	0.147916
0	H	0.480647	0.616743	0.9142
0	C	0.282162	0.325223	0.123083
0	C	0.503775	0.729669	0.938773
0	C	0.227146	0.263343	0.135853
0	C	0.55876	0.791589	0.925762
0	C	0.570957	0.473604	0.0789815
0	C	0.215194	0.581224	0.983233
0	C	0.602837	0.469861	0.98925
0	C	0.18356	0.584833	0.0729949
0	H	0.64105	0.516242	0.967157
0	H	0.145498	0.538345	0.0951284
0	H	0.558311	0.474234	0.960361
0	H	0.228213	0.580556	0.101719
0	H	0.634777	0.416213	0.970197
0	H	0.151493	0.638395	0.0921745
0	C	0.637281	0.479216	0.113787
0	C	0.148665	0.575604	0.948744
0	H	0.679099	0.431831	0.0933065
0	H	0.107202	0.623378	0.968703
0	H	0.619372	0.477154	0.1779
0	H	0.166493	0.576807	0.884599
0	H	0.666633	0.532284	0.096573
0	H	0.118916	0.522878	0.966738
0	C	0.518184	0.544809	0.1031
0	C	0.268088	0.510139	0.958787
0	H	0.550176	0.597	0.0922577
0	H	0.236231	0.457868	0.96941
0	H	0.487044	0.543527	0.165252
0	H	0.299174	0.511709	0.896621
0	H	0.476828	0.549495	0.0702154
0	H	0.309501	0.505396	0.991607
0	C	0.480624	0.0347341	0.258877
0	C	0.305514	0.0198465	0.802177
0	C	0.401454	0.971985	0.169149
0	C	0.384675	0.0826702	0.891947
0	C	0.467665	0.971169	0.0940712
0	C	0.318898	0.0828476	0.967398
0	H	0.456431	0.934406	0.0492767
0	H	0.328922	0.121849	0.0110959
0	H	0.520648	0.947452	0.101373
0	H	0.264942	0.103357	0.960045
0	H	0.477855	0.0278772	0.0683474
0	H	0.31132	0.0264881	0.99442
0	C	0.393784	0.891749	0.204655
0	C	0.391508	0.162914	0.856491
0	H	0.354653	0.890609	0.263932
0	H	0.429923	0.164167	0.79685
0	H	0.448555	0.867637	0.208235
0	H	0.33636	0.186743	0.853725
0	H	0.373287	0.852555	0.168583
0	H	0.412426	0.202307	0.892044
0	C	0.329632	0.995938	0.14659
0	C	0.456984	0.0595168	0.913965
0	H	0.277833	0.985449	0.193099
0	H	0.50845	0.0701676	0.867064
0	H	0.326272	0.964542	0.0949494
0	H	0.460502	0.0913752	0.965261
0	H	0.32866	0.056837	0.13255
0	H	0.458519	0.998731	0.928304
0	C	0.0223604	0.97319	0.384353
0	C	0.76335	0.0816092	0.677556
0	C	0.0725625	0.899706	0.365776
0	C	0.713027	0.155007	0.696149
0	H	0.11758	0.899065	0.394014
0	H	0.667913	0.155493	0.66805
0	H	0.0988982	0.893251	0.302735
0	H	0.686817	0.161522	0.759203
0	H	0.0393045	0.849309	0.385975
0	H	0.746184	0.205439	0.675799
0	C	0.957335	0.966385	0.347742
0	C	0.828287	0.0885188	0.714274
0	H	0.926302	0.914714	0.367779
0	H	0.859204	0.140286	0.694379
0	H	0.977031	0.964081	0.283648
0	H	0.808544	0.0906473	0.778362
0	H	0.916628	0.0151698	0.364065
0	H	0.869101	0.0398161	0.697868
0	C	0.988495	0.98299	0.473462
0	C	0.797268	0.0718845	0.588438
0	H	0.959422	0.0387093	0.488225
0	H	0.826149	0.0160847	0.573607
0	H	0.031342	0.978077	0.504803
0	H	0.754464	0.0770376	0.557078
0	H	0.947008	0.939932	0.497692
0	H	0.838914	0.114818	0.564277
0	C	0.121078	0.406806	0.199846
0	C	0.66476	0.647764	0.862219
0	C	0.204885	0.464644	0.286882
0	C	0.580875	0.589984	0.775217
0	C	0.136799	0.469932	0.360366
0	C	0.649172	0.584085	0.701969
0	H	0.11031	0.415144	0.376264
0	H	0.676315	0.638555	0.686119
0	H	0.0930246	0.51154	0.354887
0	H	0.692412	0.541944	0.707711
0	H	0.153728	0.489204	0.411043
0	H	0.632314	0.565135	0.651145
0	C	0.219149	0.544461	0.251126
0	C	0.565829	0.510344	0.811223
0	H	0.170869	0.566651	0.232644
0	H	0.613337	0.488258	0.831053
0	H	0.269075	0.544985	0.200295
0	H	0.51509	0.510096	0.861167
0	H	0.228096	0.584859	0.293827
0	H	0.557798	0.469736	0.768232
0	C	0.274027	0.434238	0.310818
0	C	0.512135	0.620854	0.750844
0	H	0.282757	0.468222	0.358427
0	H	0.503511	0.587037	0.703063
0	H	0.326486	0.435385	0.262898
0	H	0.459475	0.619947	0.798515
0	H	0.267543	0.374914	0.330694
0	H	0.519032	0.680166	0.731005
0	O	0.40104	0.210192	0.181968
0	O	0.384697	0.844814	0.880004
0	O	0.370247	0.225516	0.365682
0	O	0.416406	0.828056	0.696577
0	O	0.201939	0.227967	0.270062
0	O	0.58426	0.826409	0.7914
0	O	0.229412	0.214908	0.087138
0	O	0.55634	0.840361	0.974205
0	Cl	0.0624016	0.867535	0.160318
0	Cl	0.723388	0.187315	0.901627
0	Cl	0.147645	0.782186	0.0275287
0	Cl	0.638353	0.272628	0.0345514
0	C	0.951027	0.113589	0.865616
0	C	0.834918	0.941055	0.196139
0	H	0.955441	0.146593	0.811294
0	H	0.830498	0.908049	0.250466
0	H	0.955812	0.0525287	0.847101
0	H	0.830151	0.00211695	0.21466
0	C	0.0138698	0.130285	0.899557
0	C	0.772076	0.924368	0.162202
0	C	0.0588101	0.193932	0.876509
0	C	0.72723	0.86063	0.185066
0	H	0.0475901	0.231176	0.831744
0	H	0.738561	0.823229	0.229657
0	C	0.116946	0.210659	0.908778
0	C	0.669068	0.844003	0.152806
0	C	0.132471	0.162058	0.96592
0	C	0.653517	0.892671	0.0957353
0	H	0.177372	0.173904	0.992344
0	H	0.608544	0.880977	0.0693498
0	C	0.0897501	0.0985828	0.988978
0	C	0.696201	0.956177	0.0727893
0	C	0.0932652	0.0371386	0.0465153
0	C	0.692618	0.0176811	0.0153483
0	H	0.148209	0.00556983	0.0310698
0	H	0.637664	0.0492602	0.0309564
0	H	0.0849879	0.0608792	0.106143
0	H	0.700756	0.994042	0.955713
0	C	0.0278765	0.985657	0.044369
0	C	0.758049	0.0690801	0.0174971
0	C	0.0304155	0.0842141	0.956659
0	C	0.75549	0.970525	0.105188
0	C	0.0532461	0.906453	0.0125704
0	C	0.732706	0.148281	0.0492905
0	H	0.0874766	0.908699	0.950769
0	H	0.698418	0.14595	0.111052
0	C	0.999406	0.840028	0.0375757
0	C	0.786632	0.214593	0.0242437
0	C	0.927972	0.85693	0.100339
0	C	0.857906	0.197745	0.961255
0	H	0.888484	0.810523	0.114125
0	H	0.897197	0.244307	0.947125
0	C	0.875706	0.130359	0.924298
0	C	0.910236	0.924243	0.137464
0	C	0.96414	0.987145	0.123271
0	C	0.821942	0.0673286	0.93872
0	C	0.161644	0.282344	0.881407
0	C	0.624262	0.772385	0.180109
0	C	0.107887	0.352836	0.905893
0	C	0.67801	0.701841	0.156015
0	H	0.062645	0.353836	0.877953
0	H	0.722899	0.700768	0.184449
0	H	0.0817333	0.354258	0.969259
0	H	0.704636	0.700418	0.0927251
0	H	0.138331	0.405575	0.889613
0	H	0.647474	0.649125	0.172019
0	C	0.227385	0.289188	0.916909
0	C	0.558804	0.765543	0.144171
0	H	0.255235	0.343237	0.900823
0	H	0.530967	0.711461	0.160033
0	H	0.209224	0.28612	0.980977
0	H	0.577298	0.768657	0.0801096
0	H	0.270405	0.243065	0.895741
0	H	0.515686	0.811608	0.165162
0	C	0.194258	0.279009	0.791746
0	C	0.591185	0.775978	0.269708
0	H	0.225561	0.225098	0.772449
0	H	0.559874	0.829961	0.288655
0	H	0.150297	0.284788	0.76188
0	H	0.634851	0.770293	0.299978
0	H	0.233444	0.324722	0.770275
0	H	0.551883	0.730342	0.291087
0	C	0.071299	0.843696	0.0632499
0	C	0.714644	0.211085	0.998672
0	C	0.988476	0.783501	0.975377
0	C	0.79774	0.271087	0.0863969
0	C	0.0524265	0.784232	0.898439
0	C	0.734564	0.269223	0.163876
0	H	0.0576494	0.840617	0.871086
0	H	0.732635	0.213504	0.192427
0	H	0.0418605	0.744267	0.855879
0	H	0.743464	0.31148	0.205317
0	H	0.107468	0.765731	0.904304
0	H	0.678536	0.283787	0.158423
0	C	0.98244	0.702585	0.00924457
0	C	0.802441	0.352103	0.0529302
0	H	0.957823	0.664636	0.97563
0	H	0.826951	0.390401	0.086349
0	H	0.947637	0.700653	0.0704449
0	H	0.836739	0.354519	0.991537
0	H	0.0384865	0.677327	0.00723918
0	H	0.745998	0.376692	0.0555601
0	C	0.914937	0.808472	0.956604
0	C	0.872025	0.247203	0.104159
0	H	0.91264	0.870071	0.945831
0	H	0.874885	0.185833	0.115788
0	H	0.864339	0.795754	0.00378456
0	H	0.922059	0.259678	0.0561421
0	H	0.910193	0.77974	0.903965
0	H	0.8774	0.277003	0.155947
0	O	0.991415	0.019639	0.987508
0	O	0.794397	0.0351865	0.0745005
0	O	0.960591	0.0371065	0.170825
0	O	0.825776	0.0170152	0.891467
