#******************************************
#
# CIF file created by Zeo++
# Zeo++ is an open source package to
# analyze microporous materials
#
#*******************************************

_cell_length_a		16.7653(0)
_cell_length_b		9.53885(0)
_cell_length_c		24.3947(0)
_cell_angle_alpha		90(0)
_cell_angle_beta		90.2673(0)
_cell_angle_gamma		90(0)

_symmetry_space_group_name_H-M		'P1'
_symmetry_Int_Tables_number		1
_symmetry_cell_setting		Monoclinic

loop_
_symmetry_equiv_pos_as_xyz
'+x,+y,+z'

loop_
_atom_site_label
_atom_site_type_symbol
_atom_site_fract_x
_atom_site_fract_y
_atom_site_fract_z
0	B	0.518523	0.568593	0.535849
0	B	0.423715	0.0674244	0.94719
0	B	0.42614	0.444034	0.44659
0	B	0.521313	0.94604	0.03544
0	B	0.749555	0.802893	0.696872
0	B	0.18655	0.299565	0.788916
0	B	0.195133	0.209845	0.285547
0	B	0.758336	0.713225	0.193658
0	C	0.574509	0.638398	0.579362
0	C	0.365157	0.135033	0.904579
0	C	0.37016	0.374272	0.403076
0	C	0.579896	0.8783	0.0780015
0	C	0.683567	0.75138	0.655516
0	C	0.252921	0.246417	0.829775
0	C	0.261092	0.261408	0.326916
0	C	0.692003	0.7665	0.152798
0	C	0.542078	0.504155	0.809043
0	C	0.389428	0.998141	0.674482
0	C	0.402651	0.508591	0.173409
0	C	0.555364	0.0145096	0.30813
0	C	0.623479	0.460452	0.833471
0	C	0.308547	0.94507	0.652213
0	C	0.321272	0.552329	0.14896
0	C	0.636247	0.0674628	0.330444
0	H	0.667405	0.545292	0.830972
0	H	0.261634	0.0243274	0.656139
0	H	0.277316	0.46755	0.151494
0	H	0.68304	0.987922	0.326719
0	H	0.647962	0.369498	0.811883
0	H	0.288928	0.851036	0.674212
0	H	0.296811	0.643365	0.170509
0	H	0.656083	0.161147	0.308313
0	H	0.617697	0.432351	0.876811
0	H	0.312846	0.917981	0.608662
0	H	0.327067	0.580284	0.105606
0	H	0.631847	0.0950497	0.373941
0	C	0.482694	0.384055	0.818642
0	C	0.452486	0.885003	0.663257
0	C	0.462076	0.628645	0.163822
0	C	0.492313	0.127674	0.319331
0	H	0.477895	0.357971	0.862496
0	H	0.456839	0.861078	0.619186
0	H	0.46695	0.654644	0.119964
0	H	0.487963	0.151698	0.363392
0	H	0.500185	0.287701	0.797357
0	H	0.43911	0.786046	0.684153
0	H	0.444564	0.725044	0.185071
0	H	0.505695	0.226578	0.298398
0	H	0.42183	0.410945	0.804712
0	H	0.512736	0.917716	0.676518
0	H	0.522912	0.601725	0.17781
0	H	0.432061	0.0949507	0.306089
0	C	0.512045	0.637752	0.837981
0	C	0.41293	0.134749	0.644784
0	C	0.432656	0.374947	0.144491
0	C	0.53178	0.877892	0.337787
0	H	0.555701	0.72308	0.835326
0	H	0.366527	0.21521	0.648638
0	H	0.388942	0.289707	0.147107
0	H	0.578072	0.797266	0.33386
0	H	0.500495	0.618875	0.881523
0	H	0.422594	0.117139	0.600961
0	H	0.444295	0.393801	0.100958
0	H	0.52221	0.895423	0.381624
0	H	0.456447	0.676068	0.819569
0	H	0.468051	0.179111	0.661735
0	H	0.488194	0.336502	0.162952
0	H	0.476581	0.833771	0.320868
0	C	0.81372	0.0249038	0.501963
0	C	0.130998	0.527076	0.984894
0	C	0.130883	0.987839	0.480438
0	C	0.813823	0.48598	0.997598
0	C	0.874323	0.938545	0.468649
0	C	0.0756893	0.447362	0.0244804
0	C	0.0702344	0.0742643	0.513688
0	C	0.869185	0.565701	0.958047
0	H	0.921254	0.00563675	0.451722
0	H	0.0282971	0.515728	0.0400197
0	H	0.023368	0.00717031	0.53069
0	H	0.916484	0.497231	0.942443
0	H	0.845919	0.884052	0.434241
0	H	0.108085	0.405945	0.0601056
0	H	0.0986193	0.129066	0.54803
0	H	0.836804	0.607354	0.922461
0	H	0.90322	0.858814	0.494306
0	H	0.0467544	0.358674	0.003892
0	H	0.041258	0.153737	0.487952
0	H	0.898228	0.654213	0.978689
0	C	0.772294	0.132555	0.46422
0	C	0.17699	0.641805	0.0164289
0	C	0.172235	0.88019	0.518221
0	C	0.767788	0.371428	0.965998
0	H	0.816425	0.199091	0.443217
0	H	0.136097	0.705135	0.0416939
0	H	0.12806	0.813696	0.539198
0	H	0.808655	0.308083	0.940716
0	H	0.732632	0.201787	0.487379
0	H	0.207496	0.713851	0.988585
0	H	0.211891	0.810888	0.495095
0	H	0.737216	0.299344	0.993794
0	H	0.736305	0.0819165	0.432275
0	H	0.222213	0.598091	0.0440622
0	H	0.208197	0.930832	0.550182
0	H	0.722609	0.415295	0.938368
0	C	0.85803	0.105323	0.547554
0	C	0.079862	0.598708	0.940456
0	C	0.0866225	0.907375	0.434841
0	C	0.864899	0.414096	0.042009
0	H	0.901745	0.178092	0.530196
0	H	0.0383174	0.673891	0.958806
0	H	0.042863	0.834681	0.452188
0	H	0.906379	0.33886	0.0236241
0	H	0.89059	0.0342569	0.575092
0	H	0.0440848	0.522474	0.917306
0	H	0.0541132	0.978382	0.407253
0	H	0.900731	0.490173	0.0652047
0	H	0.817022	0.167372	0.572536
0	H	0.116563	0.656879	0.911256
0	H	0.127636	0.845236	0.409901
0	H	0.828136	0.355911	0.0711668
0	C	0.566001	0.606571	0.635003
0	C	0.371299	0.101836	0.848852
0	C	0.378668	0.406134	0.34744
0	C	0.573693	0.911299	0.133746
0	C	0.501585	0.519556	0.654339
0	C	0.435117	0.0148163	0.828591
0	C	0.443108	0.493123	0.32811
0	C	0.509851	0.998263	0.154
0	H	0.458197	0.480408	0.624548
0	H	0.479652	0.976176	0.857712
0	H	0.486496	0.532256	0.357909
0	H	0.465337	0.036946	0.124872
0	C	0.494152	0.487229	0.708436
0	C	0.440734	0.981727	0.774443
0	C	0.450563	0.525422	0.274014
0	C	0.50419	0.0312407	0.208156
0	H	0.444321	0.422656	0.722233
0	H	0.49016	0.917158	0.760013
0	H	0.500421	0.589942	0.260209
0	H	0.454746	0.0957761	0.22258
0	C	0.55125	0.53829	0.747973
0	C	0.382224	0.0318471	0.735741
0	C	0.393442	0.474459	0.234477
0	C	0.562629	0.980912	0.246867
0	C	0.612601	0.621609	0.730462
0	C	0.321057	0.114324	0.754193
0	C	0.332048	0.391238	0.251979
0	C	0.623751	0.898322	0.228422
0	H	0.655587	0.661281	0.76036
0	H	0.276616	0.152345	0.724991
0	H	0.289025	0.351686	0.222086
0	H	0.668086	0.860044	0.25765
0	C	0.622293	0.662126	0.673906
0	C	0.31343	0.156218	0.810761
0	C	0.322363	0.350662	0.308531
0	C	0.631473	0.856668	0.171839
0	C	0.634135	0.729317	0.561069
0	C	0.305962	0.226115	0.923446
0	C	0.310521	0.283362	0.421361
0	C	0.639042	0.787173	0.0591191
0	C	0.64267	0.762792	0.503652
0	C	0.29985	0.261408	0.980866
0	C	0.301983	0.24985	0.478773
0	C	0.645151	0.751993	0.00168753
0	H	0.602795	0.712319	0.474126
0	H	0.340726	0.211306	0.00986036
0	H	0.341865	0.300306	0.508307
0	H	0.604322	0.802241	0.972705
0	C	0.698902	0.85525	0.486395
0	C	0.244799	0.355179	0.998725
0	C	0.245741	0.157401	0.496019
0	C	0.700093	0.658056	0.983812
0	H	0.704965	0.879966	0.442937
0	H	0.240767	0.381736	0.0421278
0	H	0.239671	0.132641	0.539474
0	H	0.704083	0.631507	0.940408
0	C	0.751921	0.922713	0.525088
0	C	0.190206	0.421695	0.960774
0	C	0.192718	0.0899902	0.457323
0	C	0.754659	0.591392	0.0217482
0	C	0.74627	0.889782	0.579476
0	C	0.193032	0.386301	0.906518
0	C	0.198377	0.122936	0.402938
0	C	0.751886	0.626762	0.0760076
0	H	0.78646	0.937729	0.609364
0	H	0.151258	0.432749	0.87728
0	H	0.158186	0.0750191	0.373048
0	H	0.793659	0.580229	0.105227
0	C	0.688684	0.789978	0.599945
0	C	0.249798	0.285821	0.885344
0	C	0.255972	0.222746	0.382481
0	C	0.69515	0.727267	0.0972196
0	C	0.530661	0.410878	0.521862
0	C	0.414737	0.909044	0.96146
0	C	0.41397	0.601735	0.460598
0	C	0.530255	0.104445	0.0211917
0	C	0.583482	0.327967	0.552255
0	C	0.361982	0.823945	0.931977
0	C	0.361105	0.684612	0.430237
0	C	0.582973	0.1896	0.0506952
0	H	0.616168	0.372065	0.586999
0	H	0.328021	0.866326	0.89747
0	H	0.328419	0.640535	0.395494
0	H	0.616874	0.147256	0.0852369
0	C	0.594446	0.186754	0.538333
0	C	0.352563	0.682716	0.946471
0	C	0.350093	0.825805	0.444195
0	C	0.592432	0.330783	0.036155
0	H	0.634775	0.120947	0.562361
0	H	0.31203	0.615498	0.92321
0	H	0.309711	0.891565	0.420191
0	H	0.632944	0.398046	0.0594193
0	C	0.554011	0.129866	0.493334
0	C	0.394587	0.627922	0.99116
0	C	0.390547	0.882705	0.489187
0	C	0.550489	0.385486	0.99141
0	H	0.563105	0.0201143	0.482357
0	H	0.386442	0.518373	0.00280811
0	H	0.381428	0.992436	0.500186
0	H	0.558696	0.494989	0.979715
0	C	0.501688	0.213547	0.462633
0	C	0.447319	0.713521	0.020745
0	C	0.442911	0.799023	0.519863
0	C	0.497774	0.299877	0.961832
0	H	0.471021	0.16858	0.426818
0	H	0.479464	0.669934	0.0562294
0	H	0.47358	0.843985	0.555684
0	H	0.46568	0.343376	0.92631
0	C	0.489177	0.353282	0.477375
0	C	0.458309	0.853241	0.0054372
0	C	0.455457	0.659328	0.50509
0	C	0.486742	0.160191	0.977182
0	C	0.839296	0.77762	0.683144
0	C	0.0965615	0.277708	0.802771
0	C	0.105375	0.235027	0.299246
0	C	0.848343	0.734967	0.179823
0	C	0.865926	0.643836	0.667784
0	C	0.0685229	0.144837	0.818193
0	C	0.0786748	0.368813	0.314549
0	C	0.876487	0.867813	0.164459
0	C	0.946191	0.623364	0.653594
0	C	0.987542	0.125981	0.830698
0	C	0.998387	0.389228	0.328695
0	C	0.957482	0.886524	0.151968
0	H	0.966772	0.51991	0.641544
0	H	0.965904	0.0231774	0.842742
0	H	0.97774	0.492691	0.340682
0	H	0.979207	0.989298	0.13996
0	C	0.999863	0.735904	0.654464
0	C	0.934471	0.239218	0.828122
0	C	0.944776	0.276613	0.327868
0	C	0.0104475	0.773119	0.154491
0	C	0.973353	0.868895	0.670735
0	C	0.962498	0.37159	0.812317
0	C	0.971362	0.143599	0.311681
0	C	0.982319	0.640762	0.170219
0	H	0.0150165	0.956046	0.672237
0	H	0.921404	0.459494	0.809784
0	H	0.929742	0.056385	0.310223
0	H	0.0233279	0.552723	0.172696
0	C	0.893439	0.889973	0.685444
0	C	0.0431944	0.39106	0.799328
0	C	0.0512864	0.122594	0.296986
0	C	0.901602	0.621445	0.183193
0	C	0.810709	0.520668	0.666709
0	C	0.122922	0.020734	0.82102
0	C	0.133849	0.492054	0.315574
0	C	0.822143	0.99199	0.161641
0	H	0.769842	0.519205	0.701807
0	H	0.163506	0.0149256	0.785846
0	H	0.17442	0.493807	0.280315
0	H	0.78128	0.997512	0.196668
0	H	0.842631	0.420248	0.666798
0	H	0.0903599	0.92103	0.822522
0	H	0.101878	0.592422	0.315712
0	H	0.854755	0.0916747	0.160398
0	H	0.773227	0.523181	0.62946
0	H	0.160622	0.0261303	0.858116
0	H	0.171623	0.489331	0.352682
0	H	0.784721	0.98697	0.124407
0	C	0.0846448	0.715455	0.637739
0	C	0.848804	0.22009	0.842712
0	C	0.859955	0.296966	0.344524
0	C	0.0961213	0.792072	0.139881
0	H	0.0935218	0.748116	0.594614
0	H	0.837477	0.257769	0.884978
0	H	0.850856	0.263214	0.387495
0	H	0.107339	0.754763	0.0975518
0	H	0.104009	0.605471	0.640531
0	H	0.829696	0.109794	0.841507
0	H	0.840727	0.407081	0.342133
0	H	0.11537	0.902285	0.141231
0	H	0.126383	0.776825	0.662897
0	H	0.80848	0.278157	0.815384
0	H	0.818255	0.236415	0.319037
0	H	0.13641	0.733572	0.167092
0	C	0.868029	0.0331373	0.703187
0	C	0.0697923	0.533908	0.782027
0	C	0.0767568	0.979408	0.279312
0	C	0.874878	0.47858	0.200374
0	H	0.913622	0.113477	0.69593
0	H	0.0257251	0.615704	0.791105
0	H	0.0311606	0.899064	0.286545
0	H	0.918837	0.396683	0.191197
0	H	0.856189	0.0343803	0.747696
0	H	0.0791794	0.536809	0.737241
0	H	0.0886806	0.978078	0.234814
0	H	0.865535	0.47544	0.245162
0	H	0.812995	0.0681736	0.682854
0	H	0.126397	0.565696	0.801114
0	H	0.131753	0.944429	0.299713
0	H	0.818219	0.447096	0.18129
0	C	0.726039	0.87708	0.751539
0	C	0.209682	0.372263	0.733758
0	C	0.218721	0.135659	0.230899
0	C	0.735159	0.640438	0.248788
0	C	0.674247	0.992649	0.750667
0	C	0.261087	0.488376	0.733945
0	C	0.270557	0.0201468	0.231818
0	C	0.683757	0.524336	0.248566
0	C	0.651207	0.0557728	0.80011
0	C	0.28384	0.550161	0.684195
0	C	0.293689	0.957018	0.182399
0	C	0.660969	0.462493	0.298296
0	H	0.610586	0.144808	0.79955
0	H	0.324098	0.639764	0.684308
0	H	0.334334	0.868012	0.182997
0	H	0.620713	0.372899	0.298158
0	C	0.679657	0.00396129	0.850268
0	C	0.255407	0.49669	0.634281
0	C	0.265272	0.00870624	0.132215
0	C	0.689374	0.515923	0.34823
0	C	0.731932	0.889317	0.850961
0	C	0.203167	0.382025	0.634277
0	C	0.212902	0.123217	0.131478
0	C	0.741619	0.630594	0.348274
0	H	0.754098	0.849424	0.889903
0	H	0.180637	0.340988	0.595636
0	H	0.190731	0.162967	0.0925157
0	H	0.76413	0.671595	0.38693
0	C	0.755696	0.826239	0.801695
0	C	0.179708	0.320242	0.683897
0	C	0.18906	0.186336	0.180717
0	C	0.765106	0.692415	0.298668
0	C	0.643032	0.0516011	0.698038
0	C	0.291542	0.549476	0.786424
0	C	0.301702	0.961201	0.28447
0	C	0.653325	0.463302	0.196073
0	H	0.688127	0.0552406	0.665621
0	H	0.245083	0.557212	0.817876
0	H	0.256545	0.957583	0.316849
0	H	0.699668	0.456263	0.164515
0	H	0.619311	0.158205	0.702708
0	H	0.316682	0.654864	0.781058
0	H	0.325395	0.85457	0.279819
0	H	0.62856	0.357621	0.201372
0	H	0.593226	0.985842	0.682226
0	H	0.339876	0.482821	0.803714
0	H	0.351499	0.0269385	0.300315
0	H	0.604702	0.529566	0.178939
0	C	0.654202	0.0707901	0.902682
0	C	0.280379	0.562775	0.581577
0	C	0.290808	0.941905	0.0798185
0	C	0.664365	0.449738	0.400904
0	H	0.59221	0.0428114	0.912555
0	H	0.344973	0.551756	0.574989
0	H	0.352559	0.971	0.069727
0	H	0.599735	0.460439	0.407412
0	H	0.656424	0.185843	0.900536
0	H	0.267498	0.675811	0.581122
0	H	0.289317	0.826834	0.0821027
0	H	0.677418	0.336761	0.401375
0	H	0.690952	0.0389314	0.937918
0	H	0.250594	0.516924	0.545624
0	H	0.253656	0.972786	0.0446494
0	H	0.693994	0.49574	0.436892
0	C	0.811837	0.704504	0.804326
0	C	0.123292	0.198815	0.681974
0	C	0.132798	0.307888	0.17803
0	C	0.821517	0.813857	0.300612
0	H	0.791425	0.615196	0.779471
0	H	0.143464	0.110178	0.707289
0	H	0.153043	0.39724	0.202932
0	H	0.801362	0.902452	0.275269
0	H	0.82127	0.665782	0.846315
0	H	0.113784	0.15877	0.64028
0	H	0.123453	0.34662	0.136032
0	H	0.830982	0.853948	0.342305
0	H	0.870754	0.734661	0.788131
0	H	0.0644765	0.230057	0.698044
0	H	0.0738623	0.277521	0.19413
0	H	0.880342	0.782598	0.284569
