#******************************************
#
# CIF file created by Zeo++
# Zeo++ is an open source package to
# analyze microporous materials
#
#*******************************************

_cell_length_a		11.7032(0)
_cell_length_b		17.1535(0)
_cell_length_c		19.4056(0)
_cell_angle_alpha		70.8622(0)
_cell_angle_beta		74.4626(0)
_cell_angle_gamma		90.8579(0)

_symmetry_space_group_name_H-M		'P1'
_symmetry_Int_Tables_number		1
_symmetry_cell_setting		Triclinic

loop_
_symmetry_equiv_pos_as_xyz
'+x,+y,+z'

loop_
_atom_site_label
_atom_site_type_symbol
_atom_site_fract_x
_atom_site_fract_y
_atom_site_fract_z
0	N	0.460337	0.143926	0.611054
0	N	0.531734	0.857276	0.384567
0	N	0.342329	0.243754	0.691366
0	N	0.649597	0.75743	0.304219
0	N	0.427851	0.507928	0.204625
0	N	0.564295	0.493265	0.790984
0	N	0.280385	0.502914	0.346105
0	N	0.711471	0.49826	0.649454
0	C	0.446815	0.225194	0.571844
0	C	0.545205	0.775992	0.423765
0	C	0.492135	0.258262	0.490004
0	C	0.4999	0.742918	0.505605
0	C	0.546096	0.204928	0.446443
0	C	0.44592	0.796218	0.549189
0	C	0.481826	0.131152	0.454387
0	C	0.510192	0.869951	0.541368
0	H	0.392206	0.112274	0.493719
0	H	0.599845	0.888822	0.502097
0	C	0.533769	0.0812803	0.412992
0	C	0.458121	0.919786	0.58277
0	H	0.484279	0.0235472	0.419424
0	H	0.507598	0.977491	0.576429
0	C	0.649818	0.104573	0.363769
0	C	0.341967	0.89655	0.631831
0	H	0.690328	0.0651408	0.331947
0	H	0.301345	0.935951	0.663642
0	C	0.713797	0.178171	0.355478
0	C	0.278	0.822968	0.639995
0	H	0.804202	0.195969	0.317212
0	H	0.187516	0.805222	0.67815
0	C	0.662312	0.228516	0.396513
0	C	0.329585	0.772663	0.598981
0	H	0.712594	0.285515	0.390356
0	H	0.279331	0.715705	0.605025
0	C	0.485639	0.34111	0.453355
0	C	0.506294	0.660034	0.542229
0	H	0.52034	0.368545	0.391281
0	H	0.471556	0.632581	0.604296
0	C	0.434209	0.393232	0.494314
0	C	0.557638	0.607911	0.501258
0	H	0.432611	0.458584	0.461764
0	H	0.559166	0.542537	0.533781
0	C	0.386883	0.363382	0.572545
0	C	0.604989	0.637786	0.423028
0	C	0.391742	0.277061	0.613019
0	C	0.600171	0.724113	0.382572
0	C	0.333272	0.419642	0.612891
0	C	0.658602	0.581528	0.382675
0	C	0.247674	0.469101	0.587824
0	C	0.744174	0.53206	0.40778
0	H	0.216774	0.462706	0.541311
0	H	0.775018	0.538442	0.454321
0	C	0.200358	0.525044	0.623421
0	C	0.791555	0.476136	0.372174
0	H	0.134307	0.563429	0.603578
0	H	0.857565	0.437726	0.392054
0	C	0.236999	0.531512	0.684495
0	C	0.755056	0.469734	0.311048
0	H	0.200137	0.575147	0.712175
0	H	0.792024	0.426155	0.283324
0	C	0.320649	0.481379	0.71035
0	C	0.671372	0.519827	0.285189
0	H	0.348362	0.485796	0.758419
0	H	0.643728	0.515417	0.237096
0	C	0.368838	0.425595	0.674757
0	C	0.623082	0.575574	0.320815
0	H	0.433188	0.385867	0.695386
0	H	0.558671	0.615249	0.300193
0	C	0.352154	0.164346	0.728268
0	C	0.639737	0.836826	0.26732
0	C	0.417246	0.114201	0.686889
0	C	0.574723	0.886984	0.308727
0	C	0.442572	0.0296753	0.72592
0	C	0.549373	0.971504	0.269702
0	C	0.561635	0.0131805	0.701744
0	C	0.430314	0.98799	0.293921
0	H	0.627912	0.063023	0.658705
0	H	0.364061	0.938153	0.336991
0	C	0.595385	0.934514	0.731302
0	C	0.396509	0.0666298	0.264328
0	H	0.687885	0.922844	0.713417
0	H	0.304008	0.0782869	0.28222
0	C	0.50797	0.870827	0.783372
0	C	0.483893	0.13031	0.212174
0	H	0.530725	0.807759	0.805777
0	H	0.461084	0.193353	0.189723
0	C	0.390188	0.887143	0.806803
0	C	0.60164	0.114008	0.188719
0	H	0.325322	0.833794	0.845025
0	H	0.666502	0.167345	0.150421
0	C	0.354964	0.967445	0.781871
0	C	0.636938	0.0337164	0.213691
0	C	0.226965	0.982894	0.816565
0	C	0.764936	0.0182788	0.178985
0	C	0.222776	0.0532308	0.849204
0	C	0.769092	0.947933	0.14637
0	C	0.146141	0.0392158	0.922857
0	C	0.845703	0.961943	0.0727104
0	H	0.0844412	0.982326	0.953067
0	H	0.90739	0.0188375	0.0424717
0	C	0.14454	0.0964329	0.960089
0	C	0.847331	0.904704	0.0355045
0	H	0.0837812	0.0833856	0.0171468
0	H	0.908086	0.917747	0.978446
0	C	0.220911	0.170462	0.924337
0	C	0.770964	0.830675	0.071257
0	H	0.222892	0.214522	0.953723
0	H	0.769014	0.786602	0.0418843
0	C	0.292506	0.188054	0.84995
0	C	0.699318	0.813114	0.145627
0	H	0.349937	0.247129	0.820701
0	H	0.64185	0.754055	0.174864
0	C	0.290352	0.131849	0.810883
0	C	0.701498	0.86932	0.184695
0	C	0.162013	0.900899	0.880067
0	C	0.829912	0.100274	0.115485
0	C	0.185987	0.859004	0.9484
0	C	0.805981	0.142158	0.0471409
0	H	0.256351	0.88433	0.964815
0	H	0.735637	0.116831	0.0307146
0	C	0.118014	0.783068	0.996129
0	C	0.87397	0.218092	0.999411
0	H	0.136187	0.74979	0.0500081
0	H	0.855838	0.251352	0.945518
0	C	0.0274501	0.750041	0.975851
0	C	0.964467	0.251144	0.0197324
0	H	0.97606	0.690921	0.0137818
0	H	0.0158281	0.310278	0.9818
0	C	0.00154255	0.792411	0.90751
0	C	0.990329	0.208767	0.0880957
0	H	0.930839	0.766798	0.891874
0	H	0.0610622	0.234375	0.103732
0	C	0.0685959	0.867753	0.860265
0	C	0.923294	0.13343	0.135316
0	C	0.0597402	0.926174	0.787775
0	C	0.932134	0.0750026	0.207805
0	C	0.978167	0.922355	0.748328
0	C	0.0136714	0.0788334	0.247281
0	H	0.910985	0.869209	0.768632
0	H	0.0807917	0.132014	0.227008
0	C	0.98328	0.989192	0.681654
0	C	0.00862962	0.0119507	0.313904
0	H	0.919674	0.987487	0.650081
0	H	0.0722412	0.0136435	0.345478
0	C	0.0683532	0.057618	0.656582
0	C	0.923616	0.9435	0.338933
0	H	0.0707718	0.11015	0.605605
0	H	0.921276	0.890917	0.389857
0	C	0.151677	0.061031	0.696505
0	C	0.840268	0.940119	0.299028
0	H	0.214894	0.116381	0.674948
0	H	0.777086	0.884757	0.320566
0	C	0.149336	0.995319	0.761652
0	C	0.842578	0.00584507	0.233897
0	C	0.380911	0.432249	0.26111
0	C	0.611104	0.568941	0.734483
0	C	0.414874	0.356162	0.24944
0	C	0.577185	0.645034	0.746145
0	C	0.506994	0.358832	0.179268
0	C	0.485037	0.642377	0.816297
0	C	0.48695	0.393774	0.107828
0	C	0.50505	0.607511	0.887764
0	H	0.403361	0.419416	0.103993
0	H	0.588659	0.58191	0.891623
0	C	0.575013	0.396809	0.0418353
0	C	0.416921	0.604459	0.953719
0	H	0.558914	0.423284	0.986344
0	H	0.432989	0.578054	0.00922391
0	C	0.683447	0.365787	0.0468452
0	C	0.308409	0.635352	0.948675
0	H	0.752066	0.36843	0.995307
0	H	0.239705	0.632682	0.000185101
0	C	0.703586	0.331087	0.118004
0	C	0.288304	0.669968	0.877494
0	H	0.788253	0.30697	0.121698
0	H	0.203571	0.693966	0.873785
0	C	0.61549	0.327061	0.184318
0	C	0.376475	0.674037	0.811208
0	H	0.630993	0.299503	0.239838
0	H	0.360999	0.701535	0.755675
0	C	0.36184	0.282068	0.305665
0	C	0.630155	0.719127	0.689893
0	H	0.387253	0.223112	0.299414
0	H	0.604731	0.778082	0.696145
0	C	0.274219	0.27961	0.373471
0	C	0.717695	0.721578	0.622066
0	H	0.233163	0.218825	0.414932
0	H	0.758721	0.782353	0.580567
0	C	0.241846	0.350981	0.387932
0	C	0.750043	0.650195	0.607621
0	C	0.299099	0.429727	0.331512
0	C	0.692799	0.571451	0.664046
0	C	0.153377	0.346869	0.45988
0	C	0.838489	0.654304	0.535673
0	C	0.0612625	0.398395	0.459894
0	C	0.930607	0.602785	0.535686
0	H	0.0543133	0.442368	0.406372
0	H	0.937548	0.558807	0.589217
0	C	0.979728	0.394414	0.528644
0	C	0.0121747	0.606765	0.466951
0	H	0.908246	0.434641	0.528823
0	H	0.083638	0.566519	0.466789
0	C	0.989572	0.339271	0.597579
0	C	0.00238205	0.661874	0.397999
0	H	0.926225	0.33677	0.651211
0	H	0.0657571	0.664383	0.344384
0	C	0.08064	0.287426	0.597857
0	C	0.911224	0.713668	0.397693
0	H	0.0885636	0.245104	0.65188
0	H	0.903259	0.755928	0.343661
0	C	0.162084	0.290833	0.529323
0	C	0.829754	0.710276	0.466209
0	H	0.233901	0.251195	0.529782
0	H	0.757871	0.74986	0.465727
0	C	0.334306	0.575495	0.293095
0	C	0.657547	0.425684	0.702457
0	C	0.404998	0.578807	0.218054
0	C	0.586947	0.422381	0.777524
0	C	0.453123	0.655128	0.151269
0	C	0.538772	0.346056	0.844298
0	C	0.555063	0.647569	0.0957108
0	C	0.436835	0.35364	0.899845
0	H	0.601676	0.592132	0.109304
0	H	0.390224	0.409074	0.886228
0	C	0.594817	0.707336	0.0234115
0	C	0.397053	0.293879	0.97214
0	H	0.671877	0.699564	0.981113
0	H	0.319982	0.301671	0.0144221
0	C	0.531704	0.77615	0.00514235
0	C	0.460083	0.225017	0.99041
0	H	0.557407	0.821693	0.947611
0	H	0.434329	0.179455	0.0479404
0	C	0.435641	0.786134	0.0607825
0	C	0.5561	0.215002	0.934779
0	H	0.388317	0.840577	0.0442509
0	H	0.603331	0.160507	0.951302
0	C	0.397586	0.728575	0.136108
0	C	0.594229	0.27258	0.859455
0	C	0.298555	0.75166	0.192708
0	C	0.693282	0.249501	0.802865
0	C	0.303324	0.72704	0.275189
0	C	0.688549	0.274143	0.72038
0	C	0.278773	0.785942	0.312303
0	C	0.713163	0.215249	0.683266
0	H	0.257535	0.847591	0.282786
0	H	0.734378	0.153592	0.712784
0	C	0.277005	0.768415	0.387929
0	C	0.715038	0.232785	0.607623
0	H	0.256986	0.815491	0.41463
0	H	0.735137	0.185716	0.580923
0	C	0.3009	0.690302	0.429737
0	C	0.6911	0.310875	0.565805
0	H	0.300757	0.675994	0.488812
0	H	0.691304	0.325182	0.506723
0	C	0.32397	0.630885	0.394973
0	C	0.667915	0.370276	0.600584
0	H	0.341967	0.569463	0.427734
0	H	0.649859	0.431678	0.567821
0	C	0.322123	0.647672	0.318871
0	C	0.669732	0.3535	0.676693
0	C	0.294911	0.846875	0.163024
0	C	0.696953	0.154292	0.832544
0	C	0.385394	0.909553	0.14541
0	C	0.60649	0.0916154	0.850136
0	H	0.474472	0.895248	0.1492
0	H	0.517415	0.105913	0.846331
0	C	0.359411	0.992296	0.122963
0	C	0.632485	0.00887246	0.872574
0	H	0.429684	0.0420198	0.10935
0	H	0.562229	0.959154	0.886147
0	C	0.245221	0.0109599	0.118841
0	C	0.746659	0.990215	0.876732
0	H	0.22649	0.0754162	0.101803
0	H	0.765393	0.925757	0.893762
0	C	0.153439	0.94768	0.136307
0	C	0.83843	0.053497	0.859293
0	H	0.0642007	0.962579	0.133679
0	H	0.927657	0.0386009	0.861941
0	C	0.178879	0.865847	0.157778
0	C	0.812987	0.135334	0.837803
0	C	0.103812	0.787751	0.177753
0	C	0.888013	0.213436	0.81783
0	C	0.984953	0.773918	0.181487
0	C	0.00691436	0.227299	0.814091
0	H	0.930419	0.825047	0.170583
0	H	0.0614247	0.176163	0.825006
0	C	0.935285	0.691931	0.199848
0	C	0.0565574	0.309291	0.795698
0	H	0.84076	0.679975	0.205117
0	H	0.151086	0.321278	0.790408
0	C	0.00494755	0.626435	0.212344
0	C	0.986856	0.374768	0.783193
0	H	0.965487	0.563353	0.225693
0	H	0.0263135	0.437862	0.769808
0	C	0.12541	0.640079	0.209547
0	C	0.866393	0.361101	0.786018
0	H	0.177689	0.587883	0.220048
0	H	0.814085	0.41328	0.775522
0	C	0.173894	0.720157	0.19401
0	C	0.817941	0.281011	0.801566
