#******************************************
#
# CIF file created by Zeo++
# Zeo++ is an open source package to
# analyze microporous materials
#
#*******************************************

_cell_length_a		9.51096(0)
_cell_length_b		17.1344(0)
_cell_length_c		18.4174(0)
_cell_angle_alpha		90(0)
_cell_angle_beta		97.0447(0)
_cell_angle_gamma		90(0)

_symmetry_space_group_name_H-M		'P1'
_symmetry_Int_Tables_number		1
_symmetry_cell_setting		Monoclinic

loop_
_symmetry_equiv_pos_as_xyz
'+x,+y,+z'

loop_
_atom_site_label
_atom_site_type_symbol
_atom_site_fract_x
_atom_site_fract_y
_atom_site_fract_z
0	C	0.26065	0.430951	0.619411
0	C	0.860775	0.931451	0.335133
0	C	0.102139	0.42017	0.596243
0	C	0.0192719	0.92208	0.359345
0	H	0.038714	0.463054	0.622262
0	H	0.0819921	0.965421	0.333524
0	H	0.0665072	0.362083	0.612032
0	H	0.0568404	0.864257	0.344013
0	H	0.0764519	0.425925	0.536351
0	H	0.0435839	0.928137	0.419246
0	C	0.308435	0.51554	0.618358
0	C	0.810779	0.0157752	0.33431
0	H	0.254289	0.552579	0.65466
0	H	0.864774	0.0525166	0.297697
0	H	0.289799	0.540102	0.563099
0	H	0.827543	0.0416001	0.389122
0	H	0.423073	0.520484	0.63659
0	H	0.69621	0.0196271	0.315438
0	C	0.351512	0.376306	0.579996
0	C	0.770502	0.876929	0.375052
0	H	0.30882	0.316814	0.575184
0	H	0.815259	0.817938	0.381574
0	H	0.460642	0.373784	0.607981
0	H	0.662055	0.872717	0.346432
0	H	0.361596	0.397503	0.524328
0	H	0.758189	0.899311	0.430084
0	O	0.268179	0.404782	0.697645
0	O	0.855474	0.903851	0.257412
0	C	0.392227	0.407643	0.743971
0	C	0.731629	0.905007	0.210701
0	O	0.505602	0.430367	0.72779
0	O	0.617645	0.927496	0.226138
0	N	0.361775	0.385991	0.813928
0	N	0.76304	0.88202	0.14131
0	H	0.269488	0.354041	0.816909
0	H	0.855495	0.85018	0.13875
0	C	0.481292	0.365137	0.869832
0	C	0.643782	0.861282	0.0852439
0	H	0.576428	0.402263	0.860791
0	H	0.548623	0.898265	0.0945646
0	C	0.527274	0.277855	0.868693
0	C	0.598265	0.773871	0.0858669
0	H	0.596341	0.26623	0.921665
0	H	0.528518	0.76255	0.0331045
0	C	0.401154	0.222106	0.863418
0	C	0.724627	0.718354	0.0902311
0	H	0.436322	0.16128	0.86905
0	H	0.689578	0.657546	0.0840682
0	H	0.333257	0.226833	0.810853
0	H	0.792882	0.722597	0.142726
0	H	0.332283	0.233305	0.906257
0	H	0.793096	0.730061	0.0473042
0	C	0.615555	0.264123	0.805768
0	C	0.5108	0.759235	0.148999
0	H	0.70707	0.303702	0.808442
0	H	0.417256	0.797356	0.145895
0	H	0.553776	0.273967	0.752266
0	H	0.57193	0.770428	0.20242
0	H	0.656342	0.204359	0.806538
0	H	0.473244	0.698829	0.148815
0	C	0.43237	0.386413	0.944085
0	C	0.692066	0.883445	0.0110361
0	O	0.307776	0.391146	0.95523
0	O	0.816322	0.890489	0.999943
0	N	0.540055	0.39985	0.000485778
0	N	0.58383	0.894575	0.954349
0	H	0.6454	0.401976	0.991726
0	H	0.47855	0.896175	0.963236
0	C	0.508088	0.419716	0.0749624
0	C	0.614848	0.916183	0.880097
0	H	0.389312	0.417671	0.0762079
0	H	0.733628	0.915132	0.878694
0	C	0.566253	0.499998	0.0989075
0	C	0.554954	0.996565	0.857733
0	H	0.527446	0.545215	0.0590698
0	H	0.59405	0.041246	0.898084
0	H	0.682636	0.501526	0.104195
0	H	0.438585	0.997571	0.853237
0	H	0.534373	0.516617	0.152061
0	H	0.585203	0.0145435	0.80462
0	C	0.584343	0.357834	0.126816
0	C	0.539957	0.854309	0.827521
0	O	0.711644	0.344498	0.127507
0	O	0.41271	0.840902	0.82595
0	N	0.503961	0.32197	0.174953
0	N	0.622863	0.818934	0.780183
0	H	0.394351	0.326086	0.167733
0	H	0.732226	0.825115	0.787971
0	C	0.564376	0.256377	0.221081
0	C	0.569267	0.751297	0.734859
0	H	0.684797	0.26211	0.227995
0	H	0.448748	0.751578	0.729185
0	C	0.52418	0.175802	0.188206
0	C	0.624993	0.672907	0.767374
0	H	0.407685	0.168587	0.179427
0	H	0.741389	0.67502	0.781732
0	H	0.563305	0.130159	0.228454
0	H	0.605652	0.626671	0.725106
0	C	0.588478	0.162697	0.115782
0	C	0.55189	0.649435	0.834933
0	H	0.69655	0.190446	0.121222
0	H	0.434379	0.655234	0.819767
0	C	0.608969	0.0742236	0.103418
0	C	0.583246	0.562611	0.853623
0	H	0.690223	0.050273	0.144767
0	H	0.563952	0.526056	0.804246
0	H	0.641489	0.0627352	0.0494537
0	H	0.514709	0.541441	0.892982
0	H	0.511173	0.041523	0.107295
0	H	0.693193	0.55312	0.877344
0	C	0.499874	0.195697	0.0525353
0	C	0.599679	0.697104	0.899271
0	H	0.546734	0.221823	0.0085039
0	H	0.525995	0.72071	0.932857
0	H	0.386933	0.193898	0.048023
0	H	0.709593	0.708338	0.91529
0	C	0.506117	0.265284	0.295247
0	C	0.623167	0.763163	0.65984
0	O	0.37942	0.258431	0.302339
0	O	0.749062	0.756343	0.650844
0	N	0.6056	0.280517	0.354688
0	N	0.521727	0.780735	0.601977
0	H	0.713373	0.283476	0.349215
0	H	0.414412	0.783679	0.608455
0	C	0.565588	0.298353	0.427861
0	C	0.559606	0.799116	0.528495
0	H	0.446416	0.306054	0.423662
0	H	0.678716	0.807095	0.531949
0	C	0.613431	0.234699	0.483438
0	C	0.511023	0.735588	0.472911
0	H	0.564025	0.178442	0.466489
0	H	0.561431	0.679437	0.489344
0	H	0.583113	0.248708	0.537592
0	H	0.539921	0.749968	0.418554
0	H	0.728524	0.22571	0.489091
0	H	0.396054	0.72624	0.468016
0	C	0.632202	0.376662	0.454524
0	C	0.492019	0.87735	0.502484
0	O	0.764656	0.383526	0.433293
0	O	0.359724	0.883901	0.52391
0	O	0.580484	0.426417	0.489378
0	O	0.543126	0.927363	0.467651
0	C	0.838494	0.457493	0.446856
0	C	0.285144	0.957648	0.5101
0	H	0.855853	0.478952	0.392462
0	H	0.26591	0.978417	0.564499
0	H	0.941122	0.442111	0.478308
0	H	0.183722	0.942287	0.477551
0	H	0.777842	0.498271	0.476478
0	H	0.346291	0.99917	0.481556
0	C	0.332508	0.508369	0.329245
0	C	0.794637	0.00814878	0.628779
0	C	0.235507	0.513463	0.257279
0	C	0.889839	0.0117089	0.701404
0	H	0.248594	0.462267	0.22233
0	H	0.874332	0.960344	0.735761
0	H	0.256371	0.565507	0.22594
0	H	0.869818	0.0637548	0.732981
0	H	0.123323	0.514681	0.266195
0	H	0.00253413	0.0119591	0.693322
0	C	0.489077	0.504561	0.319098
0	C	0.637374	0.00474242	0.637477
0	H	0.556286	0.502204	0.372046
0	H	0.57171	0.00417629	0.584012
0	H	0.52118	0.555273	0.289034
0	H	0.605171	0.0547036	0.668513
0	H	0.512778	0.451777	0.288828
0	H	0.611634	0.951138	0.666014
0	C	0.30098	0.568478	0.385821
0	C	0.828728	0.0694743	0.573775
0	H	0.362685	0.556498	0.439138
0	H	0.769475	0.0584991	0.519667
0	H	0.188466	0.566948	0.394734
0	H	0.941992	0.0684369	0.566334
0	H	0.325813	0.627553	0.369167
0	H	0.802704	0.128187	0.590998
0	O	0.312844	0.428518	0.359559
0	O	0.813993	0.928725	0.597287
0	C	0.184811	0.405933	0.378757
0	C	0.942792	0.906292	0.578912
0	O	0.0849709	0.448898	0.385089
0	O	0.0432281	0.949504	0.574747
0	N	0.192823	0.325676	0.395014
0	N	0.935208	0.826551	0.560541
0	H	0.279907	0.296044	0.378118
0	H	0.847373	0.796312	0.575758
0	C	0.0597765	0.280412	0.387481
0	C	0.0683188	0.781206	0.567996
0	H	0.979757	0.313339	0.416727
0	H	0.148958	0.814969	0.539881
0	C	0.0828009	0.19793	0.42262
0	C	0.0462005	0.699553	0.53105
0	H	0.976898	0.167966	0.414107
0	H	0.152151	0.669609	0.539698
0	C	0.187737	0.149074	0.385314
0	C	0.940276	0.64948	0.566431
0	H	0.148728	0.137128	0.327863
0	H	0.97739	0.636706	0.62395
0	H	0.207578	0.0925679	0.412496
0	H	0.922418	0.593396	0.538223
0	H	0.291019	0.178023	0.385336
0	H	0.836356	0.67786	0.565751
0	C	0.1282	0.204935	0.505034
0	C	0.00314586	0.70832	0.448593
0	H	0.0447945	0.230722	0.533357
0	H	0.0882762	0.734113	0.421535
0	H	0.222813	0.242017	0.517441
0	H	0.909588	0.746229	0.436095
0	H	0.153605	0.147583	0.529647
0	H	0.976952	0.651594	0.422805
0	C	0.989776	0.271551	0.307564
0	C	0.137139	0.770542	0.647978
0	O	0.861568	0.257831	0.296435
0	O	0.265085	0.756326	0.659683
0	N	0.0686387	0.280266	0.250072
0	N	0.0568432	0.778196	0.705047
0	H	0.178064	0.282395	0.25693
0	H	0.947427	0.780437	0.697545
0	C	0.998621	0.278255	0.173625
0	C	0.125324	0.775501	0.781743
0	H	0.881423	0.291927	0.174445
0	H	0.243228	0.787775	0.781553
0	C	0.0128969	0.198714	0.137884
0	C	0.107498	0.69615	0.817201
0	H	0.957798	0.153586	0.166052
0	H	0.158055	0.650064	0.787952
0	H	0.123907	0.180826	0.138887
0	H	0.995693	0.680452	0.81745
0	H	0.965049	0.199007	0.0804266
0	H	0.157918	0.69531	0.874201
0	C	0.06975	0.340333	0.129276
0	C	0.0552098	0.838296	0.825768
0	O	0.198022	0.352729	0.137101
0	O	0.926859	0.850663	0.818371
0	N	0.978738	0.379678	0.0773813
0	N	0.146432	0.878581	0.876823
0	H	0.869787	0.37545	0.0763064
0	H	0.25532	0.874018	0.877943
0	C	0.0321086	0.436534	0.0267883
0	C	0.0932274	0.935437	0.927573
0	H	0.149072	0.42433	0.0244558
0	H	0.975984	0.92379	0.929463
0	C	0.0137357	0.521067	0.0526585
0	C	0.113496	0.0200954	0.902354
0	H	0.0617412	0.525933	0.110507
0	H	0.068127	0.0252614	0.844094
0	H	0.899788	0.534379	0.0528458
0	H	0.22788	0.0331172	0.903587
0	C	0.0812543	0.58236	0.00599138
0	C	0.0444509	0.0818146	0.947984
0	H	0.0355285	0.574639	0.947482
0	H	0.0876348	0.0740816	0.00686442
0	C	0.0449986	0.6649	0.029775
0	C	0.0830268	0.164183	0.924574
0	H	0.096513	0.709395	0.999396
0	H	0.0309622	0.20907	0.954291
0	H	0.0787802	0.675788	0.088029
0	H	0.0516907	0.175139	0.866117
0	H	0.93053	0.676698	0.0204087
0	H	0.197472	0.175461	0.935101
0	C	0.242185	0.572005	0.0113124
0	C	0.883158	0.0722631	0.940823
0	H	0.270576	0.513386	0.993462
0	H	0.852955	0.0142572	0.959384
0	H	0.292923	0.58037	0.0674082
0	H	0.834895	0.0795709	0.884148
0	H	0.289499	0.614023	0.976581
0	H	0.835003	0.115545	0.973986
0	C	0.945827	0.424783	0.950844
0	C	0.178566	0.922315	0.00359056
0	O	0.815941	0.419054	0.941252
0	O	0.308062	0.91446	0.0130906
0	N	0.0246101	0.424382	0.892319
0	N	0.0998573	0.922829	0.0621737
0	H	0.134557	0.420783	0.900118
0	H	0.989871	0.919865	0.0545134
0	C	0.95699	0.423417	0.815922
0	C	0.167899	0.921793	0.138519
0	H	0.838263	0.430797	0.814613
0	H	0.286634	0.928903	0.139588
0	C	0.0172639	0.48772	0.771347
0	C	0.108377	0.986503	0.182977
0	H	0.00669663	0.545059	0.796618
0	H	0.116271	0.0434935	0.156623
0	H	0.960788	0.490102	0.71556
0	H	0.167383	0.990258	0.238103
0	H	0.130493	0.478903	0.765956
0	H	0.996016	0.977119	0.189991
0	C	0.986641	0.344976	0.780057
0	C	0.138661	0.843508	0.174786
0	O	0.0841556	0.299735	0.793143
0	O	0.04209	0.797682	0.161614
0	O	0.877275	0.331907	0.725628
0	O	0.247209	0.831336	0.229899
0	C	0.890273	0.266966	0.676332
0	C	0.233804	0.766917	0.279731
0	H	0.784793	0.264904	0.644841
0	H	0.33771	0.766661	0.312873
0	H	0.916159	0.213311	0.707314
0	H	0.212386	0.712558	0.249228
0	H	0.972766	0.281471	0.641598
0	H	0.148107	0.78059	0.312676
