#******************************************
#
# CIF file created by Zeo++
# Zeo++ is an open source package to
# analyze microporous materials
#
#*******************************************

_cell_length_a		24.6272(0)
_cell_length_b		24.5294(0)
_cell_length_c		5.47143(0)
_cell_angle_alpha		90(0)
_cell_angle_beta		90(0)
_cell_angle_gamma		90(0)

_symmetry_space_group_name_H-M		'P1'
_symmetry_Int_Tables_number		1
_symmetry_cell_setting		Monoclinic

loop_
_symmetry_equiv_pos_as_xyz
'+x,+y,+z'

loop_
_atom_site_label
_atom_site_type_symbol
_atom_site_fract_x
_atom_site_fract_y
_atom_site_fract_z
0	S	0.0542961	0.158715	0.00121723
0	S	0.943704	0.843174	0.00206176
0	S	0.157868	0.947345	0.809754
0	S	0.84019	0.0545461	0.810289
0	S	0.0554461	0.0812544	0.155189
0	S	0.942585	0.920692	0.155478
0	S	0.0806366	0.94606	0.656553
0	S	0.917357	0.0558294	0.65635
0	S	0.12738	0.0901555	0.350368
0	S	0.870601	0.911941	0.350434
0	S	0.0895431	0.873923	0.460882
0	S	0.908343	0.127896	0.460295
0	S	0.307025	0.192319	0.999804
0	S	0.690974	0.809595	0.00110012
0	S	0.191534	0.69365	0.810924
0	S	0.806389	0.30823	0.809694
0	S	0.408713	0.372743	0.350569
0	S	0.589117	0.629142	0.350494
0	S	0.371247	0.591515	0.460635
0	S	0.626625	0.410491	0.460496
0	S	0.418119	0.444528	0.152823
0	S	0.579809	0.557326	0.152899
0	S	0.442795	0.582148	0.658111
0	S	0.555086	0.419779	0.658123
0	S	0.340884	0.446014	0.999707
0	S	0.657031	0.55592	0.99962
0	S	0.444211	0.659672	0.811454
0	S	0.553712	0.342225	0.811157
0	S	0.233245	0.266389	0.662959
0	S	0.764701	0.73558	0.663762
0	S	0.265261	0.767734	0.147833
0	S	0.732718	0.234238	0.147184
0	C	0.214028	0.144963	0.162396
0	C	0.783973	0.857004	0.163123
0	C	0.144327	0.786989	0.648328
0	C	0.853587	0.214854	0.647518
0	C	0.35416	0.285694	0.162499
0	C	0.643728	0.716208	0.162994
0	C	0.284542	0.646305	0.648509
0	C	0.713356	0.355639	0.647773
0	C	0.29148	0.35286	0.837579
0	C	0.706445	0.649099	0.837942
0	C	0.351416	0.709259	0.973457
0	C	0.646542	0.292672	0.972933
0	C	0.147112	0.207996	0.837935
0	C	0.850877	0.793911	0.838813
0	C	0.207112	0.854208	0.972648
0	C	0.790824	0.14771	0.972231
0	C	0.125108	0.168019	0.992604
0	C	0.872894	0.8339	0.993426
0	C	0.167244	0.876267	0.818132
0	C	0.830702	0.125612	0.817851
0	C	0.15764	0.137342	0.151168
0	C	0.840362	0.864624	0.151785
0	C	0.136682	0.84359	0.659664
0	C	0.861229	0.158253	0.659106
0	C	0.203664	0.215909	0.850366
0	C	0.79433	0.785997	0.851381
0	C	0.21502	0.797433	0.960205
0	C	0.782897	0.204473	0.959441
0	C	0.236046	0.184511	0.00491998
0	C	0.761955	0.81741	0.0059023
0	C	0.183754	0.764909	0.80571
0	C	0.814136	0.236966	0.804657
0	C	0.283547	0.296095	0.850264
0	C	0.714406	0.705858	0.850992
0	C	0.294878	0.717226	0.960672
0	C	0.703078	0.284705	0.959917
0	C	0.31481	0.26358	0.0048623
0	C	0.683161	0.73834	0.00577971
0	C	0.262511	0.685836	0.806011
0	C	0.735415	0.31608	0.80507
0	C	0.331324	0.374948	0.992145
0	C	0.666573	0.626989	0.992281
0	C	0.373422	0.669243	0.818978
0	C	0.624503	0.332676	0.818497
0	C	0.361782	0.342302	0.151151
0	C	0.636092	0.65961	0.15131
0	C	0.340924	0.63865	0.659978
0	C	0.656978	0.363286	0.659451
0	C	0.110956	0.241416	0.674942
0	C	0.886999	0.760508	0.675609
0	C	0.240424	0.890511	0.135568
0	C	0.757506	0.111455	0.135317
0	C	0.0869523	0.289408	0.816806
0	C	0.910972	0.712443	0.817064
0	C	0.288237	0.914576	0.993681
0	C	0.70966	0.0873931	0.993657
0	C	0.248828	0.111451	0.330804
0	C	0.749164	0.890566	0.331285
0	C	0.110957	0.75203	0.48001
0	C	0.887032	0.249783	0.479343
0	C	0.266333	0.0585871	0.205841
0	C	0.731586	0.943347	0.205816
0	C	0.058296	0.734478	0.604998
0	C	0.939609	0.26738	0.604964
0	C	0.387533	0.250783	0.33103
0	C	0.610292	0.751098	0.331373
0	C	0.249788	0.612802	0.479923
0	C	0.748089	0.38919	0.479253
0	C	0.440275	0.23339	0.206285
0	C	0.55757	0.768471	0.206403
0	C	0.232484	0.559815	0.604436
0	C	0.765428	0.442117	0.604208
0	C	0.258184	0.389154	0.674594
0	C	0.739731	0.612832	0.674786
0	C	0.38757	0.74271	0.136364
0	C	0.610427	0.25923	0.136015
0	C	0.210445	0.413297	0.816732
0	C	0.787449	0.588612	0.816808
0	C	0.411644	0.790589	0.993972
0	C	0.586329	0.211331	0.993866
0	H	0.13293	0.256474	0.51081
0	H	0.864991	0.745523	0.511436
0	H	0.255422	0.868442	0.299686
0	H	0.742536	0.133564	0.299388
0	H	0.0779669	0.215833	0.595579
0	H	0.920001	0.786088	0.596319
0	H	0.214955	0.923642	0.214945
0	H	0.782946	0.0783132	0.214783
0	H	0.285149	0.134796	0.391947
0	H	0.71287	0.867216	0.392719
0	H	0.134201	0.715545	0.419036
0	H	0.8638	0.286233	0.417891
0	H	0.227445	0.102347	0.505343
0	H	0.770546	0.899782	0.505703
0	H	0.101911	0.77346	0.305355
0	H	0.896207	0.228312	0.304941
0	H	0.396481	0.272224	0.505763
0	H	0.601311	0.729637	0.506019
0	H	0.271144	0.603863	0.305148
0	H	0.726697	0.398213	0.30466
0	H	0.364356	0.21424	0.391764
0	H	0.633436	0.787651	0.39228
0	H	0.213372	0.636053	0.419239
0	H	0.784477	0.365942	0.418226
0	H	0.283669	0.422243	0.594972
0	H	0.71423	0.579781	0.594976
0	H	0.420508	0.717126	0.216149
0	H	0.577496	0.284815	0.215869
0	H	0.243122	0.36708	0.510627
0	H	0.754815	0.634941	0.510941
0	H	0.365572	0.75789	0.3002
0	H	0.632454	0.244071	0.299816
0	H	0.118984	0.314211	0.901166
0	H	0.878926	0.687637	0.901273
0	H	0.312939	0.882398	0.909468
0	H	0.684962	0.119559	0.909329
0	H	0.0632655	0.316035	0.696642
0	H	0.934617	0.685836	0.696632
0	H	0.314769	0.938367	0.1138
0	H	0.683126	0.0636509	0.113955
0	H	0.0600497	0.275724	0.964584
0	H	0.937901	0.726047	0.964902
0	H	0.274625	0.941565	0.845794
0	H	0.723238	0.0603526	0.845897
0	H	0.290903	0.0666611	0.042699
0	H	0.707042	0.935163	0.0427132
0	H	0.0663395	0.709773	0.768026
0	H	0.931458	0.292052	0.767985
0	H	0.231094	0.0343217	0.147906
0	H	0.766793	0.967646	0.147731
0	H	0.0341468	0.769859	0.663081
0	H	0.963753	0.232007	0.663211
0	H	0.290518	0.033133	0.329083
0	H	0.707342	0.968811	0.328787
0	H	0.0329205	0.710226	0.481756
0	H	0.965028	0.291669	0.482036
0	H	0.464349	0.268857	0.148596
0	H	0.533504	0.732998	0.148739
0	H	0.267812	0.53566	0.662225
0	H	0.730103	0.466262	0.662131
0	H	0.432345	0.208726	0.0430321
0	H	0.56552	0.793112	0.043087
0	H	0.207865	0.567732	0.767578
0	H	0.790024	0.43412	0.767344
0	H	0.465671	0.209163	0.329554
0	H	0.532148	0.79271	0.32952
0	H	0.208409	0.534315	0.480971
0	H	0.789526	0.467648	0.480957
0	H	0.224152	0.440375	0.964128
0	H	0.773723	0.56152	0.964101
0	H	0.43857	0.776779	0.84651
0	H	0.559366	0.225118	0.846502
0	H	0.183837	0.437006	0.696669
0	H	0.81402	0.564889	0.696633
0	H	0.435313	0.817298	0.113853
0	H	0.562686	0.184638	0.11391
0	H	0.185804	0.381163	0.90165
0	H	0.812134	0.620702	0.901824
0	H	0.379644	0.815342	0.909082
0	H	0.618304	0.18656	0.908898
