#******************************************
#
# CIF file created by Zeo++
# Zeo++ is an open source package to
# analyze microporous materials
#
#*******************************************

_cell_length_a		9.40035(0)
_cell_length_b		9.93707(0)
_cell_length_c		12.6066(0)
_cell_angle_alpha		90.7108(0)
_cell_angle_beta		101.305(0)
_cell_angle_gamma		112.081(0)

_symmetry_space_group_name_H-M		'P1'
_symmetry_Int_Tables_number		1
_symmetry_cell_setting		Triclinic

loop_
_symmetry_equiv_pos_as_xyz
'+x,+y,+z'

loop_
_atom_site_label
_atom_site_type_symbol
_atom_site_fract_x
_atom_site_fract_y
_atom_site_fract_z
0	O	0.531328	0.408977	0.731371
0	O	0.0788316	0.291786	0.805873
0	O	0.394079	0.100699	0.847973
0	O	0.654814	0.0150807	0.792938
0	O	0.422527	0.840852	0.708873
0	O	0.912154	0.0750486	0.286485
0	O	0.284067	0.990031	0.115253
0	O	0.136388	0.957269	0.386787
0	H	0.0643507	0.00587402	0.352529
0	C	0.480232	0.0765645	0.643146
0	C	0.611832	0.231852	0.657653
0	H	0.727202	0.217662	0.679862
0	C	0.606637	0.332333	0.749762
0	C	0.705792	0.335798	0.85973
0	H	0.816334	0.324273	0.851486
0	H	0.642324	0.233359	0.895741
0	C	0.740238	0.472614	0.935662
0	H	0.713965	0.55548	0.884343
0	C	0.636247	0.439471	0.0204062
0	H	0.642327	0.343773	0.0619748
0	H	0.68345	0.531177	0.0848679
0	C	0.46541	0.412728	0.968009
0	H	0.426974	0.338072	0.892242
0	H	0.456511	0.515298	0.941135
0	C	0.355445	0.347047	0.0450447
0	H	0.355689	0.237889	0.0638125
0	H	0.398559	0.414729	0.123843
0	C	0.186429	0.332617	0.996607
0	H	0.187185	0.443632	0.980973
0	C	0.120494	0.239389	0.88689
0	C	0.106836	0.0832706	0.885217
0	H	0.198137	0.0700083	0.951363
0	H	0.992092	0.0158493	0.905304
0	C	0.116742	0.0235813	0.775221
0	H	0.0535565	0.068856	0.70939
0	C	0.288574	0.0708999	0.767395
0	C	0.320534	0.0783152	0.654535
0	H	0.310774	0.179953	0.622465
0	H	0.223541	0.989781	0.597165
0	C	0.0398274	0.853815	0.757697
0	H	0.0519756	0.820378	0.675686
0	C	0.864247	0.799377	0.757282
0	H	0.843694	0.825642	0.836366
0	H	0.806757	0.680756	0.738438
0	H	0.803411	0.850195	0.697636
0	C	0.125767	0.786487	0.843112
0	H	0.243216	0.804591	0.829553
0	H	0.0611662	0.668117	0.841415
0	H	0.142393	0.8347	0.925884
0	C	0.0804908	0.267594	0.0757155
0	H	0.0912572	0.167291	0.104942
0	H	0.955392	0.240252	0.0380164
0	H	0.110339	0.343688	0.147886
0	C	0.914053	0.539541	0.993588
0	H	0.94529	0.469488	0.0520337
0	H	0.943324	0.64577	0.0373775
0	H	0.990446	0.55815	0.934561
0	C	0.533546	0.981687	0.72534
0	C	0.457849	0.000344824	0.527585
0	H	0.358137	0.890765	0.520557
0	C	0.604294	0.980791	0.512813
0	H	0.702841	0.0829601	0.510829
0	C	0.61849	0.852663	0.49869
0	C	0.767153	0.848049	0.473113
0	H	0.791201	0.755109	0.508523
0	H	0.871443	0.946431	0.511879
0	C	0.756846	0.835349	0.349987
0	H	0.858381	0.81127	0.335147
0	H	0.649529	0.741616	0.309312
0	C	0.757459	0.972818	0.300334
0	H	0.692803	0.0282851	0.334559
0	C	0.787831	0.00376941	0.187625
0	C	0.727725	0.110471	0.128431
0	H	0.756776	0.20837	0.184885
0	H	0.793425	0.15281	0.0629617
0	C	0.551991	0.0432368	0.077541
0	H	0.521424	0.110207	0.0125689
0	H	0.520563	0.936184	0.0322157
0	C	0.45372	0.0334734	0.160404
0	H	0.500855	0.126873	0.222392
0	C	0.335559	0.890887	0.184301
0	C	0.288643	0.874095	0.292994
0	H	0.370548	0.83621	0.348128
0	H	0.170763	0.784333	0.284136
0	C	0.279146	0.0101587	0.345744
0	H	0.266122	0.0852351	0.28242
0	C	0.41222	0.0900093	0.44133
0	C	0.484425	0.236354	0.455665
0	C	0.613872	0.312569	0.553321
0	H	0.61219	0.42175	0.572484
0	H	0.728512	0.335512	0.530326
0	C	0.444151	0.336102	0.378271
0	H	0.387827	0.282213	0.295513
0	H	0.547384	0.433048	0.372282
0	H	0.360122	0.37418	0.405741
0	C	0.493249	0.707138	0.503627
0	H	0.395239	0.716474	0.535075
0	H	0.538691	0.63995	0.558173
0	H	0.443912	0.645188	0.4234
0	C	0.820087	0.898439	0.119158
0	H	0.922629	0.87652	0.160531
0	H	0.845578	0.939887	0.0415973
0	H	0.71912	0.793647	0.098919
0	C	0.315018	0.749594	0.12567
0	H	0.213459	0.656959	0.140183
0	H	0.419546	0.723691	0.151314
0	H	0.2962	0.755603	0.0371602
0	C	0.461034	0.732136	0.771407
0	H	0.543233	0.701759	0.735592
0	H	0.34683	0.640412	0.760257
0	H	0.511337	0.774635	0.856569
