#******************************************
#
# CIF file created by Zeo++
# Zeo++ is an open source package to
# analyze microporous materials
#
#*******************************************

_cell_length_a		13.1381(0)
_cell_length_b		13.3647(0)
_cell_length_c		9.92779(0)
_cell_angle_alpha		90(0)
_cell_angle_beta		90(0)
_cell_angle_gamma		118.571(0)

_symmetry_space_group_name_H-M		'P1'
_symmetry_Int_Tables_number		1
_symmetry_cell_setting		Monoclinic

loop_
_symmetry_equiv_pos_as_xyz
'+x,+y,+z'

loop_
_atom_site_label
_atom_site_type_symbol
_atom_site_fract_x
_atom_site_fract_y
_atom_site_fract_z
0	C	0.446319	0.205339	0.0962316
0	C	0.774671	0.215003	0.405392
0	C	0.750756	0.53323	0.738762
0	C	0.535061	0.768188	0.569941
0	C	0.187322	0.737845	0.906204
0	C	0.218542	0.429756	0.240206
0	C	0.343793	0.204384	0.0242483
0	C	0.719828	0.0988492	0.33827
0	C	0.866796	0.593182	0.667315
0	C	0.599065	0.710122	0.508523
0	C	0.23856	0.854153	0.8397
0	C	0.100372	0.362746	0.174748
0	C	0.532452	0.203655	0.991631
0	C	0.770554	0.303365	0.307819
0	C	0.659789	0.441493	0.645197
0	C	0.442038	0.763367	0.470578
0	C	0.193425	0.650304	0.808818
0	C	0.304254	0.519274	0.140215
0	C	0.617005	0.0988976	0.873658
0	C	0.863882	0.49993	0.218153
0	C	0.460995	0.347799	0.554543
0	C	0.339022	0.859053	0.372991
0	C	0.101602	0.454616	0.717186
0	C	0.502569	0.623168	0.048005
0	C	0.726289	0.108614	0.946647
0	C	0.852005	0.594798	0.29562
0	C	0.36849	0.242575	0.632128
0	C	0.233504	0.85357	0.44976
0	C	0.117948	0.362222	0.7949
0	C	0.595607	0.730082	0.123349
0	C	0.789149	0.0607513	0.859182
0	C	0.893799	0.702549	0.209738
0	C	0.261879	0.175382	0.543041
0	C	0.171196	0.902996	0.363928
0	C	0.0713793	0.252246	0.712233
0	C	0.70926	0.787394	0.0437895
0	C	0.808708	0.233584	0.979988
0	C	0.725334	0.551308	0.336069
0	C	0.42033	0.166336	0.674512
0	C	0.150908	0.729348	0.486637
0	C	0.246891	0.408212	0.825363
0	C	0.548548	0.81363	0.146122
0	C	0.557249	0.989041	0.787843
0	C	0.977091	0.5508	0.134653
0	C	0.407136	0.409699	0.473774
0	C	0.399547	0.96643	0.28319
0	C	0.988689	0.402157	0.633291
0	C	0.558495	0.566751	0.960646
0	N	0.509215	0.313087	0.17965
0	N	0.707293	0.211445	0.531329
0	N	0.759093	0.473281	0.864644
0	N	0.473083	0.707385	0.697769
0	N	0.255031	0.743132	0.0322734
0	N	0.21072	0.492603	0.36389
0	N	0.532353	0.102643	0.969629
0	N	0.861921	0.411539	0.30978
0	N	0.551539	0.432534	0.643766
0	N	0.426374	0.857237	0.465976
0	N	0.101051	0.542613	0.807555
0	N	0.416529	0.538049	0.14092
0	O	0.594198	0.29041	0.925428
0	O	0.688816	0.275174	0.228814
0	O	0.684971	0.381842	0.572158
0	O	0.386786	0.67988	0.397311
0	O	0.276593	0.678228	0.732079
0	O	0.27201	0.568536	0.0596731
0	O	0.497262	0.894165	0.841692
0	O	0.0732517	0.585528	0.190622
0	O	0.364845	0.46485	0.529816
0	O	0.458914	0.0623334	0.332587
0	O	0.891609	0.364257	0.687883
0	O	0.598606	0.507081	0.0113832
0	O	0.576991	0.003219	0.66212
0	O	0.963941	0.55703	0.00886361
0	O	0.408293	0.398376	0.346673
0	O	0.380762	0.947762	0.157294
0	O	0.00301004	0.398548	0.507211
0	O	0.567104	0.590819	0.836312
0	H	0.417026	0.129758	0.167725
0	H	0.867458	0.242881	0.436682
0	H	0.720478	0.596421	0.770922
0	H	0.597332	0.859991	0.59745
0	H	0.0940329	0.708009	0.937418
0	H	0.253174	0.37055	0.27422
0	H	0.453446	0.323661	0.249013
0	H	0.672115	0.131519	0.582013
0	H	0.838204	0.520518	0.917517
0	H	0.522569	0.679356	0.755414
0	H	0.288876	0.823603	0.0834729
0	H	0.132534	0.444507	0.418663
0	H	0.575797	0.310438	0.235058
0	H	0.763342	0.279195	0.597894
0	H	0.687748	0.458359	0.929417
0	H	0.454	0.764019	0.756964
0	H	0.200133	0.674638	0.098334
0	H	0.283456	0.51153	0.429026
0	H	0.54606	0.386303	0.117841
0	H	0.636718	0.223509	0.507534
0	H	0.754304	0.394959	0.841625
0	H	0.395321	0.634306	0.675401
0	H	0.326999	0.73346	0.00870453
0	H	0.211891	0.568509	0.337223
0	H	0.295869	0.125633	0.965615
0	H	0.769737	0.0982609	0.249898
0	H	0.863033	0.641514	0.579644
0	H	0.652937	0.758968	0.422927
0	H	0.185272	0.854491	0.754816
0	H	0.102724	0.310071	0.0911918
0	H	0.282274	0.209433	0.0951218
0	H	0.711371	0.03114	0.407041
0	H	0.936657	0.652158	0.733399
0	H	0.654784	0.69814	0.58193
0	H	0.248342	0.921041	0.910912
0	H	0.033835	0.306913	0.246566
0	H	0.371509	0.275917	0.95278
0	H	0.631353	0.0761044	0.300998
0	H	0.892229	0.53043	0.628678
0	H	0.53678	0.62492	0.469039
0	H	0.326134	0.878925	0.798607
0	H	0.0710358	0.421027	0.131354
0	H	0.484301	0.0320817	0.0329808
0	H	0.928106	0.43428	0.381051
0	H	0.529571	0.478773	0.712159
0	H	0.471097	0.925657	0.532335
0	H	0.0361906	0.518314	0.880528
0	H	0.444652	0.505137	0.21902
0	H	0.645785	0.173535	0.802779
0	H	0.789199	0.458204	0.145425
0	H	0.50384	0.316023	0.479879
0	H	0.306646	0.78224	0.305057
0	H	0.176232	0.497576	0.644331
0	H	0.454903	0.652242	0.976624
0	H	0.697415	0.058118	0.0420695
0	H	0.907076	0.616371	0.388336
0	H	0.341835	0.272969	0.723676
0	H	0.265521	0.90541	0.543914
0	H	0.0684162	0.343359	0.891567
0	H	0.612982	0.702437	0.223263
0	H	0.868378	0.0718508	0.908935
0	H	0.882482	0.767998	0.264002
0	H	0.199661	0.0964545	0.593014
0	H	0.0899111	0.888239	0.411223
0	H	0.0947864	0.191582	0.758421
0	H	0.768413	0.871314	0.0857827
0	H	0.815249	0.104934	0.76182
0	H	0.84434	0.685743	0.115264
0	H	0.285134	0.15045	0.447203
0	H	0.149606	0.86391	0.263627
0	H	0.107518	0.268734	0.609865
0	H	0.694716	0.800997	0.938101
0	H	0.735365	0.969571	0.839327
0	H	0.985932	0.739591	0.183963
0	H	0.216861	0.224508	0.520525
0	H	0.224778	0.995342	0.350401
0	H	0.976512	0.209939	0.704116
0	H	0.754532	0.736189	0.045601
0	H	0.880506	0.242672	0.0436166
0	H	0.717253	0.607051	0.411094
0	H	0.361761	0.0972621	0.740759
0	H	0.0790245	0.721836	0.548732
0	H	0.262053	0.351503	0.891806
0	H	0.607648	0.886393	0.20739
0	H	0.763426	0.27263	0.0342117
0	H	0.688145	0.465834	0.381009
0	H	0.502327	0.214985	0.729244
0	H	0.19635	0.692083	0.543911
0	H	0.283531	0.491945	0.874673
0	H	0.464815	0.772623	0.19876
0	H	0.846864	0.284275	0.888135
0	H	0.671598	0.547291	0.249136
0	H	0.437684	0.126038	0.587143
0	H	0.113403	0.676257	0.396368
0	H	0.297227	0.419321	0.732256
0	H	0.536289	0.849054	0.0507337
