#******************************************
#
# CIF file created by Zeo++
# Zeo++ is an open source package to
# analyze microporous materials
#
#*******************************************

_cell_length_a		31.8621(0)
_cell_length_b		9.22769(0)
_cell_length_c		19.5974(0)
_cell_angle_alpha		90(0)
_cell_angle_beta		129.162(0)
_cell_angle_gamma		90(0)

_symmetry_space_group_name_H-M		'P1'
_symmetry_Int_Tables_number		1
_symmetry_cell_setting		Monoclinic

loop_
_symmetry_equiv_pos_as_xyz
'+x,+y,+z'

loop_
_atom_site_label
_atom_site_type_symbol
_atom_site_fract_x
_atom_site_fract_y
_atom_site_fract_z
0	Se	0.143257	0.367854	0.304872
0	Se	0.84257	0.366687	0.178488
0	Se	0.840995	0.617798	0.677585
0	Se	0.141728	0.619205	0.804104
0	Se	0.641441	0.870562	0.305615
0	Se	0.344405	0.869359	0.177713
0	Se	0.342816	0.115085	0.676851
0	Se	0.639895	0.116531	0.804876
0	P	0.186374	0.51089	0.287554
0	P	0.799804	0.509175	0.19669
0	P	0.797885	0.474864	0.694957
0	P	0.184447	0.476612	0.785868
0	P	0.684718	0.0126661	0.288262
0	P	0.301489	0.0109116	0.195981
0	P	0.299544	0.973086	0.69425
0	P	0.682761	0.974868	0.786571
0	N	0.0947677	0.517931	0.0171144
0	N	0.890725	0.516586	0.467415
0	N	0.889549	0.468045	0.965418
0	N	0.0935526	0.469202	0.515144
0	N	0.59364	0.0191593	0.0178591
0	N	0.391862	0.0177915	0.466672
0	N	0.390686	0.966847	0.964673
0	N	0.592413	0.967999	0.515882
0	N	0.0691159	0.637104	0.0853043
0	N	0.916752	0.63566	0.399758
0	N	0.915172	0.348845	0.897179
0	N	0.0674953	0.350154	0.582767
0	N	0.568055	0.141331	0.0852405
0	N	0.417829	0.139833	0.399827
0	N	0.416238	0.844607	0.897251
0	N	0.566415	0.845981	0.582693
0	C	0.163562	0.525614	0.177388
0	C	0.822618	0.522188	0.306984
0	C	0.820711	0.460224	0.805142
0	C	0.161628	0.463644	0.675568
0	C	0.662013	0.0265239	0.178159
0	C	0.324204	0.0230238	0.306218
0	C	0.322264	0.959299	0.804371
0	C	0.660041	0.962794	0.676329
0	H	0.193645	0.490177	0.171215
0	H	0.792599	0.484643	0.312875
0	H	0.790633	0.495716	0.811313
0	H	0.191641	0.501271	0.66968
0	H	0.69204	0.98983	0.172138
0	H	0.294247	0.984194	0.311945
0	H	0.292238	0.99602	0.810393
0	H	0.689994	0.00168815	0.670604
0	C	0.113134	0.560576	0.101953
0	C	0.872721	0.558522	0.382659
0	C	0.871142	0.425257	0.880565
0	C	0.111537	0.427283	0.59989
0	C	0.611799	0.06239	0.102487
0	C	0.374081	0.060275	0.382133
0	C	0.372482	0.923441	0.880034
0	C	0.610175	0.925527	0.600411
0	C	0.0422607	0.576537	0.950382
0	C	0.942818	0.57728	0.534366
0	C	0.942023	0.409199	0.0321317
0	C	0.0414672	0.408514	0.448183
0	C	0.541556	0.0794747	0.950733
0	C	0.443496	0.0802476	0.534007
0	C	0.442733	0.906283	0.031784
0	C	0.540786	0.90555	0.448537
0	C	0.0258939	0.64657	0.992255
0	C	0.959462	0.647073	0.492882
0	C	0.958368	0.339153	0.990234
0	C	0.0248022	0.338733	0.489638
0	C	0.525153	0.151233	0.992098
0	C	0.46018	0.151768	0.493038
0	C	0.459113	0.834495	0.990398
0	C	0.524081	0.83404	0.489476
0	C	0.12931	0.447049	0.00138921
0	C	0.855931	0.446588	0.482934
0	C	0.854934	0.538373	0.981167
0	C	0.12836	0.539168	0.499637
0	C	0.627813	0.943948	0.0027399
0	C	0.357431	0.943502	0.481604
0	C	0.356425	0.0414483	0.979816
0	C	0.626858	0.0422523	0.500963
0	H	0.164919	0.514442	0.0248778
0	H	0.820283	0.514045	0.459027
0	H	0.819469	0.470521	0.957895
0	H	0.163986	0.471632	0.523513
0	H	0.663816	0.00926123	0.0258864
0	H	0.321401	0.00894151	0.458048
0	H	0.320577	0.975625	0.956903
0	H	0.662865	0.976726	0.524485
0	H	0.106542	0.425909	0.930671
0	H	0.87849	0.42631	0.553707
0	H	0.877726	0.559816	0.0518612
0	H	0.105794	0.5595	0.428867
0	H	0.604978	0.9209	0.932133
0	H	0.380053	0.921311	0.552272
0	H	0.379285	0.0648135	0.0503944
0	H	0.60423	0.0644929	0.430298
0	H	0.144258	0.342192	0.0367383
0	H	0.841188	0.341219	0.44817
0	H	0.839768	0.643047	0.945635
0	H	0.143136	0.644501	0.534445
0	H	0.642256	0.839767	0.0390143
0	H	0.343182	0.838797	0.445911
0	H	0.341742	0.145439	0.943345
0	H	0.641143	0.146918	0.536702
0	C	0.0130462	0.558329	0.855301
0	C	0.971332	0.560686	0.629278
0	C	0.971221	0.42725	0.127217
0	C	0.0129569	0.425059	0.353267
0	C	0.512907	0.0619004	0.855788
0	C	0.471418	0.0643044	0.628758
0	C	0.471364	0.923711	0.126731
0	C	0.512869	0.921441	0.353782
0	H	0.976291	0.626252	0.81613
0	H	0.00783106	0.62961	0.668492
0	H	0.00788051	0.358964	0.166358
0	H	0.97644	0.35621	0.314068
0	H	0.476037	0.129417	0.816295
0	H	0.508017	0.132872	0.668304
0	H	0.508136	0.85582	0.166196
0	H	0.476246	0.852971	0.314251
0	H	0.999869	0.445656	0.834107
0	H	0.984744	0.448281	0.651141
0	H	0.98454	0.539815	0.14853
0	H	0.999571	0.537466	0.331383
0	H	0.499883	0.949385	0.834117
0	H	0.484694	0.952077	0.651114
0	H	0.484536	0.0361197	0.148522
0	H	0.499629	0.0336741	0.331406
0	H	0.037831	0.589627	0.836513
0	H	0.945869	0.592079	0.646779
0	H	0.946364	0.396278	0.145917
0	H	0.0384034	0.393517	0.335759
0	H	0.537993	0.0942929	0.837723
0	H	0.445639	0.0967243	0.645504
0	H	0.446203	0.891664	0.144706
0	H	0.538628	0.888843	0.33703
0	C	0.973831	0.718067	0.95381
0	C	0.0113425	0.719883	0.531641
0	C	0.0104075	0.267519	0.0286558
0	C	0.972925	0.265908	0.450856
0	C	0.473389	0.225225	0.953019
0	C	0.511737	0.227135	0.532425
0	C	0.510852	0.760355	0.0294552
0	C	0.472527	0.75866	0.450064
0	H	0.943895	0.698215	0.882158
0	H	0.041053	0.700834	0.603353
0	H	0.0403761	0.287466	0.100295
0	H	0.943234	0.284889	0.379133
0	H	0.44377	0.206955	0.881167
0	H	0.541125	0.209619	0.60432
0	H	0.540503	0.778715	0.101296
0	H	0.443159	0.776114	0.37816
0	H	0.978095	0.83608	0.963355
0	H	0.00676145	0.83772	0.521682
0	H	0.00611627	0.149495	0.019179
0	H	0.977512	0.148074	0.460843
0	H	0.478394	0.342986	0.963477
0	H	0.506399	0.344705	0.521566
0	H	0.505815	0.642586	0.0190604
0	H	0.47787	0.641092	0.46095
0	H	0.955233	0.675257	0.981809
0	H	0.0304244	0.677483	0.504405
0	H	0.0289769	0.310151	0.000571398
0	H	0.953804	0.308317	0.478029
0	H	0.453977	0.183187	0.979784
0	H	0.531627	0.18561	0.50641
0	H	0.530238	0.802207	0.00260924
0	H	0.452599	0.800188	0.476015
0	C	0.0682302	0.715131	0.149802
0	C	0.918136	0.712635	0.335553
0	C	0.91593	0.270254	0.832696
0	C	0.066097	0.273118	0.646938
0	C	0.566884	0.219186	0.149448
0	C	0.419515	0.21665	0.335938
0	C	0.41728	0.766176	0.833061
0	C	0.564712	0.76912	0.646548
0	H	0.0657652	0.639154	0.190799
0	H	0.920134	0.635729	0.294424
0	H	0.918309	0.345882	0.791467
0	H	0.0641355	0.349979	0.688126
0	H	0.564466	0.143198	0.190432
0	H	0.421432	0.139761	0.294772
0	H	0.419628	0.841807	0.791858
0	H	0.562824	0.845976	0.687761
0	H	0.0326207	0.787224	0.116323
0	H	0.954247	0.782878	0.369303
0	H	0.95153	0.198117	0.866182
0	H	0.0299591	0.20299	0.613163
0	H	0.531159	0.290766	0.115684
0	H	0.455765	0.286275	0.369997
0	H	0.452986	0.694517	0.866834
0	H	0.528437	0.6996	0.612465
0	H	0.104336	0.785127	0.192786
0	H	0.882538	0.784333	0.292956
0	H	0.879819	0.200218	0.789928
0	H	0.101665	0.201296	0.689474
0	H	0.602874	0.28946	0.192399
0	H	0.384057	0.288711	0.293415
0	H	0.381277	0.695892	0.790307
0	H	0.600143	0.696946	0.689025
0	C	0.191713	0.698113	0.329897
0	C	0.794794	0.696816	0.155173
0	C	0.792504	0.287615	0.652619
0	C	0.189383	0.288931	0.827283
0	C	0.689987	0.200152	0.330299
0	C	0.296561	0.198826	0.154797
0	C	0.294228	0.785577	0.652212
0	C	0.687617	0.786917	0.827659
0	C	0.205323	0.813061	0.300777
0	C	0.782109	0.811518	0.185806
0	C	0.779044	0.172643	0.681952
0	C	0.202222	0.174316	0.79683
0	C	0.703696	0.314886	0.301203
0	C	0.283786	0.313298	0.185431
0	C	0.280669	0.670822	0.681523
0	C	0.700551	0.672527	0.797216
0	H	0.210418	0.797655	0.250947
0	H	0.777135	0.795287	0.235714
0	H	0.774088	0.188041	0.731946
0	H	0.207328	0.19064	0.747082
0	H	0.708938	0.299237	0.251584
0	H	0.278674	0.296813	0.235139
0	H	0.275564	0.686468	0.731305
0	H	0.705797	0.689092	0.74767
0	C	0.211908	0.951772	0.335157
0	C	0.776302	0.951044	0.15286
0	C	0.772411	0.0339243	0.647557
0	C	0.207987	0.034754	0.8297
0	C	0.710195	0.453796	0.335307
0	C	0.278074	0.453036	0.152789
0	C	0.274122	0.531902	0.647406
0	C	0.706227	0.53276	0.829796
0	H	0.222181	0.0424193	0.312519
0	H	0.766914	0.0415658	0.176907
0	H	0.76227	0.943249	0.670377
0	H	0.217495	0.944298	0.805794
0	H	0.720564	0.544488	0.312783
0	H	0.268605	0.543598	0.176748
0	H	0.263886	0.441186	0.670114
0	H	0.715822	0.442257	0.805989
0	C	0.204496	0.974701	0.397528
0	C	0.783398	0.974821	0.0901865
0	C	0.779569	0.0110311	0.584881
0	C	0.200656	0.0108433	0.892083
0	C	0.702565	0.477184	0.397377
0	C	0.285387	0.477301	0.0904166
0	C	0.281498	0.508548	0.58503
0	C	0.69868	0.508374	0.891876
0	H	0.209864	0.0826099	0.424664
0	H	0.778891	0.083499	0.0644856
0	H	0.774145	0.903123	0.557714
0	H	0.205133	0.902131	0.917724
0	H	0.707838	0.585446	0.424207
0	H	0.280982	0.586337	0.0650468
0	H	0.276171	0.400285	0.558172
0	H	0.703058	0.399313	0.917199
0	C	0.190148	0.859231	0.425151
0	C	0.796405	0.859349	0.0604835
0	C	0.793745	0.126537	0.557008
0	C	0.187451	0.126189	0.921563
0	C	0.688056	0.362009	0.424919
0	C	0.298547	0.362137	0.0607674
0	C	0.295833	0.623757	0.557231
0	C	0.685312	0.623416	0.921286
0	H	0.184117	0.877124	0.473463
0	H	0.802105	0.878178	0.0118319
0	H	0.799583	0.108695	0.508463
0	H	0.181553	0.107228	0.969969
0	H	0.681818	0.380331	0.472948
0	H	0.304464	0.381408	0.0124119
0	H	0.301875	0.605485	0.508965
0	H	0.679197	0.604024	0.969393
0	C	0.184179	0.719691	0.391849
0	C	0.801712	0.719134	0.0925231
0	C	0.799786	0.266075	0.590365
0	C	0.182196	0.266442	0.889599
0	C	0.682183	0.222279	0.391894
0	C	0.303747	0.221719	0.0924993
0	C	0.301778	0.763487	0.590312
0	C	0.680159	0.763865	0.889618
0	H	0.174562	0.631173	0.416986
0	H	0.810556	0.630837	0.0661776
0	H	0.809262	0.354617	0.565031
0	H	0.173178	0.354638	0.915755
0	H	0.672413	0.134172	0.417028
0	H	0.312733	0.133838	0.0661347
0	H	0.311403	0.851618	0.564974
0	H	0.670992	0.851647	0.91578
0	C	0.260482	0.468172	0.355396
0	C	0.725648	0.467451	0.128947
0	C	0.723779	0.517586	0.627132
0	C	0.258617	0.518204	0.85359
0	C	0.758787	0.969167	0.356175
0	C	0.227376	0.968404	0.12818
0	C	0.225477	0.0165966	0.626353
0	C	0.756889	0.0172489	0.854353
0	C	0.285295	0.361446	0.420223
0	C	0.700363	0.362025	0.0633498
0	C	0.698966	0.624278	0.562281
0	C	0.283942	0.623791	0.919097
0	C	0.783324	0.860806	0.420008
0	C	0.202357	0.861311	0.0635725
0	C	0.200939	0.124918	0.562492
0	C	0.781947	0.124494	0.918872
0	H	0.26275	0.291163	0.431851
0	H	0.722557	0.292583	0.0506295
0	H	0.721508	0.69451	0.550622
0	H	0.261771	0.693426	0.931781
0	H	0.760649	0.790062	0.431189
0	H	0.224672	0.791353	0.0512931
0	H	0.223612	0.195607	0.551278
0	H	0.759653	0.194644	0.931112
0	C	0.341476	0.342232	0.473121
0	C	0.644204	0.343053	0.0112039
0	C	0.642792	0.643555	0.509414
0	C	0.34011	0.642599	0.97121
0	C	0.839435	0.840269	0.472479
0	C	0.146269	0.841049	0.0118544
0	C	0.144837	0.14552	0.510053
0	C	0.838045	0.144588	0.970564
0	H	0.361425	0.259674	0.524457
0	H	0.623904	0.261105	0.959475
0	H	0.622841	0.726076	0.458054
0	H	0.360449	0.724651	0.0228811
0	H	0.85922	0.75647	0.523106
0	H	0.126124	0.757879	0.960818
0	H	0.125048	0.229273	0.459397
0	H	0.858227	0.227858	0.0215417
0	C	0.372071	0.428075	0.460261
0	C	0.614072	0.428224	0.0253383
0	C	0.612196	0.557789	0.522299
0	C	0.3702	0.557061	0.957144
0	C	0.87024	0.926436	0.460205
0	C	0.115936	0.926582	0.0254173
0	C	0.114031	0.0594363	0.522357
0	C	0.868336	0.0586909	0.957071
0	H	0.415699	0.412147	0.501594
0	H	0.570428	0.412119	0.984533
0	H	0.568575	0.573795	0.481005
0	H	0.413855	0.573	0.997946
0	H	0.913799	0.909332	0.50103
0	H	0.0723639	0.909334	0.985125
0	H	0.0704793	0.0766201	0.481574
0	H	0.91192	0.0757699	0.997367
0	C	0.346602	0.533031	0.393833
0	C	0.639986	0.532474	0.0922011
0	C	0.637651	0.452749	0.588676
0	C	0.344245	0.452669	0.890369
0	C	0.845074	0.0334084	0.39499
0	C	0.141553	0.0328579	0.0910747
0	C	0.139182	0.952385	0.587521
0	C	0.84268	0.952282	0.891501
0	H	0.370052	0.598879	0.382459
0	H	0.616844	0.59803	0.104309
0	H	0.614195	0.386885	0.600027
0	H	0.367357	0.386815	0.878319
0	H	0.868748	0.0999197	0.38432
0	H	0.118195	0.0990752	0.102502
0	H	0.115502	0.885863	0.59817
0	H	0.86601	0.88577	0.880139
0	C	0.290633	0.55321	0.341249
0	C	0.695955	0.552055	0.144227
0	C	0.693621	0.432533	0.641255
0	C	0.288272	0.43328	0.838365
0	C	0.789187	0.0548365	0.342818
0	C	0.197439	0.0536862	0.142676
0	C	0.195069	0.930917	0.639687
0	C	0.786789	0.931649	0.839917
0	H	0.271649	0.635872	0.289683
0	H	0.715251	0.633957	0.196237
0	H	0.712589	0.349789	0.692768
0	H	0.268942	0.351278	0.786411
0	H	0.770445	0.138996	0.29212
0	H	0.216498	0.137116	0.193819
0	H	0.213795	0.846677	0.690333
0	H	0.767696	0.848134	0.788825
