#******************************************
#
# CIF file created by Zeo++
# Zeo++ is an open source package to
# analyze microporous materials
#
#*******************************************

_cell_length_a		4.87716(0)
_cell_length_b		16.7323(0)
_cell_length_c		27.0559(0)
_cell_angle_alpha		90(0)
_cell_angle_beta		80.6617(0)
_cell_angle_gamma		90(0)

_symmetry_space_group_name_H-M		'P1'
_symmetry_Int_Tables_number		1
_symmetry_cell_setting		Monoclinic

loop_
_symmetry_equiv_pos_as_xyz
'+x,+y,+z'

loop_
_atom_site_label
_atom_site_type_symbol
_atom_site_fract_x
_atom_site_fract_y
_atom_site_fract_z
0	C	0.306404	0.118076	0.563752
0	C	0.599109	0.596661	0.983409
0	C	0.639811	0.873303	0.487858
0	C	0.350051	0.393821	0.068481
0	C	0.536569	0.151661	0.580075
0	C	0.368811	0.628638	0.966249
0	C	0.409323	0.839688	0.471686
0	C	0.579742	0.361844	0.0858439
0	H	0.581632	0.138508	0.617612
0	H	0.311039	0.608619	0.930592
0	H	0.36391	0.852686	0.434155
0	H	0.635339	0.381487	0.121752
0	C	0.707238	0.204631	0.548599
0	C	0.215319	0.689015	0.994193
0	C	0.23908	0.786788	0.503285
0	C	0.735203	0.301886	0.0578191
0	H	0.879907	0.234523	0.562003
0	H	0.0434806	0.718171	0.979988
0	H	0.0661101	0.756804	0.490058
0	H	0.907403	0.272939	0.0720501
0	C	0.635663	0.22452	0.50166
0	C	0.304637	0.717268	0.0380901
0	C	0.311116	0.76712	0.550219
0	C	0.648	0.273933	0.013686
0	C	0.402627	0.189317	0.485805
0	C	0.5382	0.683869	0.0547335
0	C	0.544216	0.802464	0.565972
0	C	0.41503	0.307351	0.99683
0	H	0.349469	0.204905	0.449294
0	H	0.605297	0.706594	0.0886851
0	H	0.597512	0.78706	0.602499
0	H	0.349871	0.284926	0.962648
0	C	0.235907	0.135327	0.516629
0	C	0.688018	0.622584	0.0275336
0	C	0.710627	0.856325	0.535001
0	C	0.263393	0.368241	0.0240857
0	H	0.0647677	0.104525	0.5032
0	H	0.858882	0.592847	0.0417233
0	H	0.881761	0.887289	0.548327
0	H	0.0924462	0.39776	0.00979126
0	C	0.793986	0.281675	0.470523
0	C	0.160665	0.780553	0.065813
0	C	0.153128	0.709932	0.581364
0	C	0.792398	0.210775	0.985899
0	C	0.921346	0.332192	0.443944
0	C	0.0417346	0.834667	0.0903219
0	C	0.0255471	0.659308	0.607812
0	C	0.91003	0.156587	0.961268
0	C	0.0563334	0.389417	0.413265
0	C	0.911249	0.894428	0.119336
0	C	0.890303	0.601986	0.638364
0	C	0.0384696	0.0966067	0.93217
0	C	0.167581	0.440477	0.385209
0	C	0.799651	0.946715	0.146332
0	C	0.778746	0.550791	0.666273
0	C	0.147501	0.0440334	0.90511
0	C	0.293167	0.501345	0.35008
0	C	0.669229	0.0101031	0.178861
0	C	0.652907	0.489858	0.701315
0	C	0.276143	0.98071	0.872303
0	H	0.518322	0.51057	0.355917
0	H	0.448231	0.0188626	0.170763
0	H	0.427752	0.48073	0.695467
0	H	0.49812	0.972017	0.879908
0	C	0.1417	0.581202	0.358735
0	C	0.825163	0.0891991	0.169443
0	C	0.804049	0.409973	0.692591
0	C	0.120994	0.901544	0.881772
0	C	0.867094	0.585372	0.382931
0	C	0.0978677	0.0931633	0.144293
0	C	0.0786756	0.405793	0.668404
0	C	0.847945	0.897777	0.906764
0	H	0.749959	0.530561	0.393943
0	H	0.209706	0.0387082	0.130694
0	H	0.195998	0.4606	0.657453
0	H	0.736073	0.952408	0.919999
0	C	0.735041	0.659554	0.39318
0	C	0.235626	0.167038	0.136308
0	C	0.210436	0.331589	0.658096
0	C	0.710318	0.823955	0.915007
0	H	0.528341	0.66267	0.415542
0	H	0.441743	0.170359	0.113683
0	H	0.417093	0.328446	0.635721
0	H	0.504125	0.820784	0.937595
0	C	0.882591	0.729604	0.378228
0	C	0.0945928	0.236796	0.153989
0	C	0.0627496	0.261544	0.673007
0	C	0.851563	0.754055	0.897641
0	H	0.784396	0.787787	0.386435
0	H	0.198514	0.294745	0.148641
0	H	0.160824	0.203349	0.664785
0	H	0.747623	0.69614	0.903213
0	C	0.155733	0.725588	0.352981
0	C	0.820133	0.233059	0.178645
0	C	0.789536	0.265588	0.698214
0	C	0.126082	0.757633	0.873024
0	H	0.268185	0.780807	0.341519
0	H	0.710861	0.28854	0.190963
0	H	0.67678	0.210407	0.709624
0	H	0.235372	0.702056	0.860923
0	C	0.287552	0.651756	0.342596
0	C	0.68346	0.159678	0.187185
0	C	0.657933	0.339436	0.708658
0	C	0.26277	0.830993	0.864221
0	H	0.491922	0.6485	0.319327
0	H	0.478871	0.156321	0.210368
0	H	0.45347	0.342688	0.731897
0	H	0.467185	0.83422	0.840965
0	C	0.391927	0.3114	0.296302
0	C	0.534697	0.826617	0.239998
0	C	0.554248	0.67973	0.755404
0	C	0.407278	0.16426	0.810999
0	C	0.519812	0.271956	0.332513
0	C	0.391036	0.786442	0.206282
0	C	0.426729	0.719466	0.71924
0	C	0.551429	0.204488	0.844641
0	H	0.694759	0.299953	0.346743
0	H	0.220892	0.816435	0.191643
0	H	0.251681	0.691652	0.704951
0	H	0.721924	0.174604	0.859238
0	C	0.416417	0.198695	0.351612
0	C	0.469934	0.70949	0.190488
0	C	0.530563	0.792753	0.700283
0	C	0.472603	0.281437	0.860426
0	H	0.518518	0.167601	0.379079
0	H	0.354619	0.677925	0.165116
0	H	0.428815	0.824059	0.672847
0	H	0.588596	0.313089	0.885657
0	C	0.18454	0.163691	0.335265
0	C	0.693958	0.671544	0.207735
0	C	0.762355	0.827579	0.716795
0	C	0.248551	0.319389	0.843181
0	C	0.0609115	0.202313	0.298185
0	C	0.837813	0.711758	0.241371
0	C	0.885538	0.788673	0.753814
0	C	0.104375	0.279151	0.809624
0	H	0.891765	0.17345	0.282981
0	H	0.0056248	0.681685	0.256295
0	H	0.0544907	0.817375	0.769167
0	H	0.936662	0.309216	0.794669
0	C	0.166334	0.275529	0.278958
0	C	0.756492	0.788782	0.257356
0	C	0.77986	0.715365	0.772857
0	C	0.18533	0.202067	0.793695
0	H	0.0693813	0.305157	0.24993
0	H	0.868676	0.81968	0.28382
0	H	0.876691	0.685544	0.801836
0	H	0.0726802	0.171193	0.767297
0	C	0.0720567	0.0869884	0.357745
0	C	0.773152	0.589519	0.189734
0	C	0.875749	0.90428	0.694458
0	C	0.16964	0.401465	0.861105
0	H	0.896564	0.0634041	0.341265
0	H	0.964363	0.567264	0.201467
0	H	0.0472966	0.928518	0.711795
0	H	0.977927	0.423612	0.849513
0	H	0.00181878	0.0934366	0.398233
0	H	0.794506	0.586592	0.148696
0	H	0.95257	0.897408	0.654203
0	H	0.149382	0.404527	0.902121
0	H	0.230265	0.0385596	0.352386
0	H	0.61057	0.545023	0.204125
0	H	0.716439	0.95238	0.698759
0	H	0.331818	0.445975	0.846538
0	N	0.293198	0.476806	0.29736
0	N	0.655048	0.990941	0.232774
0	N	0.653132	0.514276	0.754052
0	N	0.286766	0.999978	0.818492
0	H	0.0895439	0.47331	0.28933
0	H	0.854461	0.99016	0.242799
0	H	0.856888	0.517768	0.762042
0	H	0.0865669	0.000633448	0.808839
0	O	0.517754	0.405503	0.218807
0	O	0.434944	0.928308	0.314378
0	O	0.427997	0.585228	0.832676
0	O	0.506073	0.0623869	0.736709
0	O	0.798311	0.409083	0.286894
0	O	0.141485	0.92681	0.248266
0	O	0.147993	0.581977	0.764513
0	O	0.799756	0.0638897	0.802855
0	S	0.517069	0.40124	0.272562
0	S	0.426013	0.919614	0.261149
0	S	0.429074	0.589771	0.778922
0	S	0.515344	0.0711836	0.789919
0	Br	0.0610486	0.050658	0.607401
0	Br	0.820585	0.518233	0.944227
0	Br	0.884979	0.940394	0.443952
0	Br	0.125694	0.471656	0.107662
