#******************************************
#
# CIF file created by Zeo++
# Zeo++ is an open source package to
# analyze microporous materials
#
#*******************************************

_cell_length_a		12.0438(0)
_cell_length_b		15.3527(0)
_cell_length_c		16.7747(0)
_cell_angle_alpha		90(0)
_cell_angle_beta		94.7169(0)
_cell_angle_gamma		90(0)

_symmetry_space_group_name_H-M		'P1'
_symmetry_Int_Tables_number		1
_symmetry_cell_setting		Monoclinic

loop_
_symmetry_equiv_pos_as_xyz
'+x,+y,+z'

loop_
_atom_site_label
_atom_site_type_symbol
_atom_site_fract_x
_atom_site_fract_y
_atom_site_fract_z
0	O	0.985219	0.118065	0.0769965
0	O	0.024513	0.619291	0.449662
0	O	0.0237745	0.888187	0.955617
0	O	0.984369	0.386782	0.582772
0	C	0.977483	0.190454	0.131712
0	C	0.0314547	0.691414	0.39443
0	C	0.0316217	0.815872	0.900844
0	C	0.977367	0.314712	0.638057
0	N	0.0150584	0.26757	0.0835496
0	N	0.993894	0.76866	0.442359
0	N	0.994008	0.738672	0.94889
0	N	0.0148342	0.2374	0.590178
0	N	0.0348081	0.246645	0.0155756
0	N	0.974982	0.748137	0.510607
0	N	0.973996	0.759509	0.0168316
0	N	0.0337383	0.257832	0.521901
0	C	0.0137358	0.150619	0.997787
0	C	0.996235	0.652196	0.528743
0	C	0.995037	0.855536	0.0347367
0	C	0.0125674	0.353772	0.503697
0	C	0.914353	0.139298	0.937716
0	C	0.0954773	0.640742	0.588978
0	C	0.0942752	0.866799	0.094942
0	C	0.913333	0.365235	0.443475
0	C	0.11758	0.102979	0.977521
0	C	0.892338	0.60486	0.549463
0	C	0.891081	0.903106	0.054892
0	C	0.116509	0.401031	0.482919
0	N	0.145407	0.277741	0.287594
0	N	0.862799	0.776802	0.237741
0	N	0.864005	0.728508	0.744907
0	N	0.146209	0.229393	0.794644
0	N	0.0533672	0.248946	0.264096
0	N	0.95505	0.748891	0.261843
0	N	0.955982	0.757423	0.768424
0	N	0.0539107	0.257325	0.77066
0	C	0.0576022	0.173112	0.206807
0	C	0.951217	0.673412	0.319566
0	C	0.951553	0.833239	0.825716
0	C	0.0576555	0.33276	0.712884
0	C	0.183306	0.163691	0.193092
0	C	0.825517	0.663916	0.333513
0	C	0.825806	0.842549	0.83935
0	C	0.183304	0.342291	0.69882
0	C	0.243155	0.231163	0.254212
0	C	0.765323	0.729644	0.270907
0	C	0.76614	0.774979	0.778237
0	C	0.243608	0.276485	0.761304
0	C	0.311321	0.297463	0.211282
0	C	0.695414	0.796173	0.31213
0	C	0.698095	0.708583	0.82116
0	C	0.313218	0.209899	0.7199
0	C	0.31194	0.189221	0.324422
0	C	0.698759	0.685614	0.200835
0	C	0.6973	0.816781	0.707985
0	C	0.310468	0.32043	0.831302
0	C	0.228975	0.0728172	0.201944
0	C	0.78098	0.572549	0.327151
0	C	0.780021	0.933381	0.830447
0	C	0.227898	0.433641	0.705239
0	C	0.314478	0.048621	0.154495
0	C	0.697303	0.54851	0.376292
0	C	0.694607	0.957584	0.877984
0	C	0.311552	0.457683	0.65608
0	C	0.360203	0.964992	0.158836
0	C	0.653599	0.464182	0.374537
0	C	0.648858	0.0412048	0.873631
0	C	0.355366	0.54199	0.657911
0	C	0.319224	0.905157	0.212106
0	C	0.694578	0.403472	0.322071
0	C	0.68967	0.101008	0.820266
0	C	0.31445	0.602672	0.710433
0	C	0.234875	0.928191	0.261749
0	C	0.777296	0.426164	0.270982
0	C	0.773837	0.0779396	0.770482
0	C	0.23164	0.58	0.761448
0	C	0.190321	0.0117162	0.255847
0	C	0.819739	0.510438	0.274249
0	C	0.818429	0.994423	0.776387
0	C	0.189135	0.495743	0.758145
0	O	0.355245	0.820219	0.221586
0	O	0.660192	0.317959	0.314478
0	O	0.653604	0.185934	0.810795
0	O	0.349054	0.688125	0.718143
0	C	0.427403	0.78675	0.163369
0	C	0.589153	0.284799	0.373508
0	C	0.58128	0.219342	0.868936
0	C	0.419854	0.72133	0.658967
0	N	0.689225	0.190312	0.0788041
0	N	0.319135	0.692162	0.448026
0	N	0.319875	0.816168	0.953839
0	N	0.689735	0.314189	0.584448
0	N	0.776209	0.232581	0.0880602
0	N	0.232208	0.734419	0.438106
0	N	0.232865	0.773934	0.944672
0	N	0.776562	0.271816	0.594406
0	C	0.856578	0.198689	0.154633
0	C	0.152302	0.700074	0.371461
0	C	0.152552	0.807671	0.877996
0	C	0.856517	0.306176	0.661048
0	C	0.806818	0.108292	0.175427
0	C	0.20257	0.60977	0.351151
0	C	0.202316	0.898024	0.857078
0	C	0.806352	0.396491	0.681348
0	C	0.683066	0.113677	0.136301
0	C	0.325887	0.615137	0.391042
0	C	0.326092	0.892657	0.896186
0	C	0.68306	0.391228	0.64143
0	C	0.596881	0.136586	0.194668
0	C	0.412889	0.637545	0.33319
0	C	0.41222	0.869558	0.837848
0	C	0.59597	0.368883	0.699243
0	C	0.650849	0.0316324	0.0884842
0	C	0.357382	0.533261	0.439356
0	C	0.358435	0.974783	0.943855
0	C	0.651675	0.4731	0.593083
0	C	0.819325	0.0848633	0.262323
0	C	0.191042	0.586301	0.264274
0	C	0.189743	0.921343	0.770154
0	C	0.817902	0.419919	0.768227
0	C	0.800264	0.145082	0.322483
0	C	0.210286	0.646391	0.204038
0	C	0.208961	0.861092	0.710053
0	C	0.79839	0.35987	0.828421
0	C	0.808323	0.12094	0.402965
0	C	0.202328	0.62193	0.123639
0	C	0.200925	0.885132	0.629542
0	C	0.806344	0.384294	0.908829
0	C	0.837558	0.0348198	0.422953
0	C	0.173033	0.535754	0.103993
0	C	0.171483	0.971177	0.609467
0	C	0.835945	0.470404	0.928527
0	C	0.862562	0.974037	0.363831
0	C	0.148293	0.475012	0.163221
0	C	0.146233	0.0319746	0.668541
0	C	0.860953	0.531102	0.869366
0	C	0.852362	0.999406	0.284208
0	C	0.15846	0.500711	0.242738
0	C	0.156468	0.00670613	0.748178
0	C	0.850762	0.505467	0.789827
0	O	0.84233	0.999266	0.498092
0	O	0.168151	0.499969	0.0289318
0	O	0.166725	0.00662812	0.534289
0	O	0.840903	0.50614	0.00361731
0	C	0.830825	0.0574209	0.565081
0	C	0.17751	0.55827	0.961828
0	C	0.178178	0.94836	0.467379
0	C	0.83085	0.447838	0.0706275
0	H	0.932845	0.164019	0.878388
0	H	0.0773833	0.666687	0.647996
0	H	0.0755999	0.842082	0.154221
0	H	0.931403	0.339354	0.384457
0	H	0.840191	0.174251	0.954399
0	H	0.170274	0.674457	0.571856
0	H	0.168439	0.831796	0.0783484
0	H	0.838541	0.331487	0.460567
0	H	0.891576	0.0701663	0.930427
0	H	0.116979	0.571482	0.597333
0	H	0.117084	0.935913	0.102261
0	H	0.891828	0.434484	0.435149
0	H	0.14788	0.12906	0.922029
0	H	0.862621	0.630942	0.60515
0	H	0.860492	0.876816	0.110203
0	H	0.146008	0.375039	0.427122
0	H	0.0995705	0.0328529	0.967968
0	H	0.910191	0.534794	0.558966
0	H	0.90908	0.973189	0.0646972
0	H	0.0987752	0.471131	0.473573
0	H	0.185068	0.107805	0.0252898
0	H	0.824526	0.609814	0.501965
0	H	0.823791	0.898465	0.00695782
0	H	0.184431	0.395872	0.53032
0	H	0.0261345	0.113688	0.237295
0	H	0.982799	0.613861	0.289329
0	H	0.982995	0.892693	0.79527
0	H	0.0260712	0.392299	0.743137
0	H	0.196106	0.18653	0.13113
0	H	0.812574	0.688519	0.394844
0	H	0.812948	0.819723	0.9013
0	H	0.19618	0.317737	0.637424
0	H	0.38591	0.267928	0.189399
0	H	0.620551	0.766569	0.333523
0	H	0.623421	0.738013	0.843016
0	H	0.388127	0.239408	0.698483
0	H	0.339113	0.351585	0.250908
0	H	0.66807	0.84966	0.271643
0	H	0.670429	0.654431	0.781535
0	H	0.340437	0.156256	0.760249
0	H	0.263211	0.327527	0.159787
0	H	0.74215	0.827204	0.363726
0	H	0.746241	0.678556	0.872659
0	H	0.266291	0.179067	0.668289
0	H	0.38297	0.153096	0.304125
0	H	0.628331	0.648659	0.221
0	H	0.626162	0.852812	0.728242
0	H	0.380806	0.357405	0.811024
0	H	0.26301	0.143101	0.357406
0	H	0.749555	0.639768	0.168962
0	H	0.74612	0.862939	0.674957
0	H	0.259812	0.36624	0.863329
0	H	0.344119	0.238443	0.367793
0	H	0.666087	0.733544	0.15638
0	H	0.665257	0.767487	0.664646
0	H	0.343271	0.272435	0.875648
0	H	0.346535	0.0955438	0.113234
0	H	0.665274	0.596148	0.41691
0	H	0.662648	0.910679	0.919285
0	H	0.343464	0.410079	0.6154
0	H	0.425965	0.94751	0.12126
0	H	0.589278	0.446851	0.413409
0	H	0.583108	0.0586881	0.911245
0	H	0.419643	0.559325	0.619017
0	H	0.205161	0.880385	0.303029
0	H	0.807451	0.377563	0.230687
0	H	0.803349	0.125677	0.729065
0	H	0.201396	0.628622	0.801732
0	H	0.123389	0.0297221	0.293087
0	H	0.884965	0.528277	0.235419
0	H	0.885165	0.976374	0.738994
0	H	0.123831	0.477935	0.796908
0	H	0.432392	0.717224	0.178761
0	H	0.58455	0.215129	0.358753
0	H	0.576206	0.288841	0.853516
0	H	0.424854	0.790954	0.673931
0	H	0.509055	0.817983	0.17187
0	H	0.507231	0.315604	0.365324
0	H	0.499686	0.188036	0.86037
0	H	0.501668	0.690293	0.666799
0	H	0.388767	0.795226	0.102301
0	H	0.62845	0.294075	0.434275
0	H	0.61983	0.210935	0.930034
0	H	0.380163	0.712284	0.598277
0	H	0.855107	0.246043	0.205812
0	H	0.153555	0.747269	0.320111
0	H	0.15411	0.760207	0.826893
0	H	0.85523	0.258942	0.712417
0	H	0.85114	0.0575509	0.141166
0	H	0.157912	0.55904	0.385062
0	H	0.158024	0.9488	0.891304
0	H	0.851107	0.447184	0.647433
0	H	0.593735	0.0861824	0.240914
0	H	0.415701	0.587312	0.28676
0	H	0.415243	0.919753	0.791406
0	H	0.593281	0.419065	0.745717
0	H	0.513189	0.142565	0.164096
0	H	0.496454	0.642808	0.364061
0	H	0.49596	0.863735	0.868375
0	H	0.512403	0.3638	0.668339
0	H	0.616043	0.198795	0.225425
0	H	0.394637	0.700116	0.302739
0	H	0.393077	0.80719	0.807263
0	H	0.61402	0.306257	0.729555
0	H	0.655245	0.974253	0.12764
0	H	0.353257	0.475675	0.40042
0	H	0.354414	0.0320322	0.904542
0	H	0.656164	0.530746	0.631946
0	H	0.706286	0.0201626	0.0407047
0	H	0.301391	0.522041	0.486814
0	H	0.302806	0.986554	0.99146
0	H	0.707492	0.484114	0.545473
0	H	0.565721	0.0361175	0.0600401
0	H	0.442351	0.537717	0.468069
0	H	0.44345	0.970169	0.97249
0	H	0.566588	0.468798	0.564557
0	H	0.778749	0.21257	0.306601
0	H	0.23191	0.713873	0.219795
0	H	0.230565	0.793638	0.725996
0	H	0.776608	0.292425	0.812635
0	H	0.793704	0.168659	0.448872
0	H	0.217095	0.669411	0.0775112
0	H	0.215677	0.837365	0.583692
0	H	0.791344	0.336825	0.954913
0	H	0.890069	0.908738	0.38195
0	H	0.121141	0.409627	0.145242
0	H	0.118555	0.0971615	0.650336
0	H	0.888316	0.596434	0.887347
0	H	0.870454	0.952136	0.238326
0	H	0.140716	0.453532	0.288747
0	H	0.138164	0.0540215	0.793973
0	H	0.86869	0.552596	0.743814
0	H	0.836844	0.011745	0.615543
0	H	0.171424	0.512508	0.911437
0	H	0.172387	0.993864	0.416898
0	H	0.837707	0.493452	0.121099
0	H	0.750124	0.0904135	0.559066
0	H	0.257649	0.592128	0.967193
0	H	0.258784	0.915224	0.473469
0	H	0.750222	0.414678	0.0652508
0	H	0.900099	0.103933	0.569916
0	H	0.107389	0.604036	0.957549
0	H	0.108775	0.90197	0.462552
0	H	0.900284	0.401436	0.0747836
