#******************************************
#
# CIF file created by Zeo++
# Zeo++ is an open source package to
# analyze microporous materials
#
#*******************************************

_cell_length_a		26.2878(0)
_cell_length_b		15.092(0)
_cell_length_c		25.2832(0)
_cell_angle_alpha		90(0)
_cell_angle_beta		133.601(0)
_cell_angle_gamma		90(0)

_symmetry_space_group_name_H-M		'P1'
_symmetry_Int_Tables_number		1
_symmetry_cell_setting		Monoclinic

loop_
_symmetry_equiv_pos_as_xyz
'+x,+y,+z'

loop_
_atom_site_label
_atom_site_type_symbol
_atom_site_fract_x
_atom_site_fract_y
_atom_site_fract_z
0	S	0.322573	0.955795	0.885074
0	S	0.721568	0.954289	0.618717
0	S	0.718127	0.0575248	0.118156
0	S	0.319329	0.0583185	0.38434
0	S	0.822573	0.455402	0.886219
0	S	0.221295	0.45496	0.61804
0	S	0.218238	0.557608	0.116728
0	S	0.819429	0.558116	0.385357
0	S	0.119811	0.952649	0.739831
0	S	0.923236	0.9539	0.760005
0	S	0.92082	0.0603787	0.26302
0	S	0.117088	0.0591645	0.242085
0	S	0.619471	0.452569	0.740858
0	S	0.423322	0.454339	0.759356
0	S	0.421161	0.560138	0.261835
0	S	0.616857	0.55926	0.242748
0	P	0.2114	0.111959	0.729947
0	P	0.831242	0.112704	0.771141
0	P	0.828819	0.900799	0.272574
0	P	0.209109	0.899905	0.231621
0	P	0.711013	0.611697	0.73105
0	P	0.33174	0.612866	0.770956
0	P	0.329151	0.400745	0.2712
0	P	0.708617	0.400358	0.232016
0	O	0.288562	0.141461	0.817548
0	O	0.753782	0.141114	0.683657
0	O	0.751623	0.871517	0.184943
0	O	0.286561	0.87156	0.319171
0	O	0.788258	0.641078	0.818677
0	O	0.254195	0.641473	0.683551
0	O	0.251886	0.371604	0.183528
0	O	0.78612	0.371767	0.319497
0	O	0.133147	0.0687816	0.652676
0	O	0.909537	0.0685431	0.847327
0	O	0.907102	0.943973	0.349771
0	O	0.130782	0.943676	0.15511
0	O	0.632725	0.568528	0.653734
0	O	0.41005	0.568573	0.847082
0	O	0.407454	0.443876	0.348488
0	O	0.630292	0.444232	0.155516
0	O	0.249883	0.0172097	0.737692
0	O	0.792423	0.0190957	0.76486
0	O	0.790276	0.995279	0.265177
0	O	0.24781	0.993643	0.237945
0	O	0.749424	0.516921	0.73872
0	O	0.292942	0.519173	0.764569
0	O	0.290702	0.495294	0.26384
0	O	0.7473	0.494252	0.238565
0	O	0.172083	0.14047	0.759004
0	O	0.869916	0.141236	0.741263
0	O	0.868019	0.872646	0.243313
0	O	0.170329	0.871684	0.261409
0	O	0.671801	0.64028	0.760198
0	O	0.37026	0.641539	0.740951
0	O	0.368279	0.372513	0.241889
0	O	0.669917	0.371897	0.261827
0	N	0.217988	0.190422	0.684925
0	N	0.826082	0.19193	0.816811
0	N	0.822374	0.82205	0.317536
0	N	0.214552	0.820517	0.186261
0	N	0.717521	0.690205	0.685995
0	N	0.32674	0.69191	0.816847
0	N	0.322732	0.321957	0.316156
0	N	0.713991	0.321235	0.186454
0	C	0.150891	0.235733	0.623473
0	C	0.893912	0.235462	0.8788
0	C	0.889521	0.776803	0.378962
0	C	0.146878	0.776532	0.12449
0	C	0.6504	0.735338	0.624386
0	C	0.394598	0.735228	0.879019
0	C	0.389879	0.276835	0.377727
0	C	0.646332	0.277348	0.124533
0	C	0.278755	0.252189	0.73187
0	C	0.76631	0.255154	0.770403
0	C	0.761685	0.760197	0.270575
0	C	0.274546	0.757622	0.232896
0	C	0.778153	0.752136	0.73299
0	C	0.267059	0.755273	0.77051
0	C	0.262143	0.259989	0.269114
0	C	0.773955	0.258293	0.233022
0	C	0.298532	0.136649	0.878287
0	C	0.743216	0.135194	0.622565
0	C	0.741616	0.876654	0.124191
0	C	0.297109	0.87752	0.380241
0	C	0.79839	0.63619	0.879519
0	C	0.243465	0.635784	0.622349
0	C	0.241731	0.376759	0.122686
0	C	0.796808	0.377359	0.380668
0	C	0.316956	0.0564395	0.915547
0	C	0.724805	0.0545015	0.585903
0	C	0.723403	0.957055	0.0872249
0	C	0.315682	0.95822	0.416957
0	C	0.817063	0.555991	0.91684
0	C	0.224704	0.555231	0.585417
0	C	0.223308	0.457137	0.0856358
0	C	0.815689	0.457836	0.417717
0	C	0.123036	0.980391	0.634518
0	C	0.919172	0.979931	0.864819
0	C	0.917188	0.0323251	0.368025
0	C	0.120926	0.0321491	0.137187
0	C	0.622568	0.480163	0.635487
0	C	0.419745	0.479932	0.864516
0	C	0.417583	0.532212	0.366836
0	C	0.620363	0.532719	0.137624
0	C	0.112635	0.919928	0.668254
0	C	0.929873	0.920098	0.83103
0	C	0.927815	0.0928631	0.334518
0	C	0.110275	0.0923624	0.170827
0	C	0.612187	0.419662	0.669234
0	C	0.430259	0.420188	0.830522
0	C	0.428229	0.592777	0.333361
0	C	0.609807	0.592844	0.171402
0	C	0.321904	0.0135879	0.782496
0	C	0.720356	0.0148538	0.719352
0	C	0.71824	0.999032	0.22019
0	C	0.319859	0.997725	0.2832
0	C	0.821413	0.513294	0.783308
0	C	0.220906	0.515159	0.719358
0	C	0.218686	0.499115	0.219005
0	C	0.819329	0.498159	0.283616
0	C	0.363556	0.983991	0.854442
0	C	0.679608	0.982924	0.648178
0	C	0.676827	0.0291493	0.148408
0	C	0.360901	0.0294584	0.354478
0	C	0.86325	0.483572	0.855245
0	C	0.179814	0.483508	0.648053
0	C	0.177162	0.529375	0.147255
0	C	0.860628	0.529536	0.355028
0	C	0.100745	0.132319	0.71738
0	C	0.941189	0.13383	0.782489
0	C	0.939374	0.880556	0.284937
0	C	0.0990403	0.879212	0.220095
0	C	0.600399	0.632268	0.718335
0	C	0.441576	0.634177	0.782348
0	C	0.439713	0.380282	0.283813
0	C	0.598569	0.379375	0.220278
0	C	0.0695581	0.0503648	0.70585
0	C	0.97275	0.0522149	0.793919
0	C	0.970761	0.96242	0.296696
0	C	0.0674917	0.960921	0.208443
0	C	0.569153	0.550273	0.706636
0	C	0.473073	0.5525	0.793713
0	C	0.471169	0.46219	0.295784
0	C	0.567058	0.461138	0.208645
0	H	0.107715	0.18689	0.587856
0	H	0.936417	0.185566	0.913574
0	H	0.932702	0.825673	0.414515
0	H	0.104186	0.826137	0.0894831
0	H	0.607306	0.686391	0.588756
0	H	0.437035	0.685241	0.913805
0	H	0.433013	0.325761	0.413322
0	H	0.603678	0.326998	0.0895101
0	H	0.157043	0.26906	0.589187
0	H	0.888465	0.268415	0.91377
0	H	0.883448	0.743511	0.413328
0	H	0.152426	0.74336	0.089666
0	H	0.656639	0.768659	0.590165
0	H	0.389046	0.768126	0.91392
0	H	0.383691	0.243563	0.412009
0	H	0.652008	0.244261	0.0897886
0	H	0.134044	0.286819	0.640346
0	H	0.911366	0.286562	0.862557
0	H	0.906317	0.725673	0.362061
0	H	0.129617	0.725504	0.140984
0	H	0.633365	0.786441	0.641062
0	H	0.412244	0.786336	0.862988
0	H	0.406838	0.225678	0.361004
0	H	0.628938	0.226255	0.140843
0	H	0.281578	0.29207	0.69725
0	H	0.763694	0.294738	0.805312
0	H	0.758839	0.720295	0.30517
0	H	0.277271	0.717902	0.198128
0	H	0.781201	0.791785	0.698465
0	H	0.264231	0.794461	0.805398
0	H	0.259067	0.220287	0.303598
0	H	0.776877	0.218974	0.198257
0	H	0.277499	0.299196	0.764709
0	H	0.768631	0.302458	0.738555
0	H	0.763058	0.713186	0.237835
0	H	0.272384	0.710442	0.264932
0	H	0.776513	0.799299	0.76545
0	H	0.269663	0.8029	0.739045
0	H	0.263855	0.212857	0.236704
0	H	0.771587	0.210783	0.264738
0	H	0.328526	0.214398	0.77047
0	H	0.715992	0.218617	0.731009
0	H	0.711878	0.797887	0.231899
0	H	0.324746	0.794435	0.272149
0	H	0.827926	0.714438	0.771888
0	H	0.21672	0.718878	0.730787
0	H	0.212343	0.297612	0.230174
0	H	0.824141	0.29506	0.272553
0	H	0.307735	0.359771	0.908774
0	H	0.73455	0.358089	0.59094
0	H	0.731742	0.653694	0.0928359
0	H	0.30574	0.654711	0.41193
0	H	0.80674	0.859314	0.909667
0	H	0.235778	0.858783	0.591549
0	H	0.232688	0.153758	0.0917376
0	H	0.804404	0.154346	0.411287
0	H	0.226111	0.313786	0.828426
0	H	0.815648	0.311306	0.671481
0	H	0.813546	0.699169	0.173333
0	H	0.224489	0.701332	0.331462
0	H	0.725375	0.812621	0.829443
0	H	0.316593	0.811194	0.671898
0	H	0.314186	0.199996	0.172146
0	H	0.723515	0.201908	0.330996
0	H	0.302602	0.304769	0.843457
0	H	0.738953	0.304307	0.656167
0	H	0.737162	0.708359	0.158457
0	H	0.30102	0.708403	0.346464
0	H	0.80194	0.804439	0.84452
0	H	0.239789	0.804801	0.656453
0	H	0.237641	0.208364	0.157074
0	H	0.800259	0.208393	0.346314
0	H	0.304215	0.0926606	0.0696211
0	H	0.72942	0.0856464	0.425636
0	H	0.736179	0.92104	0.933066
0	H	0.311555	0.928811	0.577491
0	H	0.804739	0.591762	0.071248
0	H	0.230292	0.588462	0.425748
0	H	0.235311	0.421473	0.930896
0	H	0.810762	0.426063	0.577729
0	H	0.395682	0.0926146	0.122479
0	H	0.638751	0.0921647	0.375812
0	H	0.644743	0.922464	0.880285
0	H	0.402057	0.919101	0.627258
0	H	0.896167	0.591516	0.12393
0	H	0.13951	0.591134	0.375849
0	H	0.143937	0.422814	0.878417
0	H	0.901431	0.419852	0.627567
0	H	0.350638	0.193836	0.0996899
0	H	0.687517	0.189919	0.399031
0	H	0.688815	0.820573	0.902276
0	H	0.351294	0.823143	0.602971
0	H	0.851313	0.692818	0.10153
0	H	0.185785	0.690942	0.397688
0	H	0.188005	0.32098	0.900132
0	H	0.852866	0.321933	0.60441
0	H	0.173093	0.0515965	0.57329
0	H	0.867594	0.0482834	0.925858
0	H	0.866425	0.9616	0.428938
0	H	0.171522	0.961632	0.0760855
0	H	0.672336	0.551721	0.574205
0	H	0.368682	0.547956	0.926129
0	H	0.366966	0.461096	0.427621
0	H	0.670594	0.462443	0.0761632
0	H	0.110361	0.992434	0.489274
0	H	0.932665	0.991206	0.0105047
0	H	0.930156	0.0195941	0.513409
0	H	0.107948	0.0200135	0.991828
0	H	0.61003	0.492149	0.49034
0	H	0.434102	0.490975	0.0107667
0	H	0.430128	0.519548	0.51195
0	H	0.606875	0.520866	0.991929
0	H	0.0821032	0.0749059	0.513972
0	H	0.957855	0.0747183	0.983288
0	H	0.957124	0.936979	0.487433
0	H	0.0807317	0.937398	0.0175008
0	H	0.581191	0.574443	0.514539
0	H	0.45888	0.574601	0.98318
0	H	0.45787	0.43712	0.486666
0	H	0.579797	0.438166	0.0177112
0	H	0.049254	0.673818	0.577269
0	H	0.989708	0.672102	0.917753
0	H	0.990911	0.338872	0.425512
0	H	0.0494485	0.339664	0.0824016
0	H	0.549895	0.173109	0.579363
0	H	0.489968	0.171982	0.916624
0	H	0.490431	0.839134	0.423465
0	H	0.548921	0.84026	0.0833711
0	H	0.13034	0.672634	0.601118
0	H	0.910916	0.67263	0.898471
0	H	0.910074	0.33994	0.40217
0	H	0.12889	0.339272	0.102944
0	H	0.629979	0.172826	0.601189
0	H	0.411816	0.172739	0.89855
0	H	0.410451	0.839435	0.401849
0	H	0.627958	0.839783	0.103127
0	H	0.0517633	0.698987	0.510634
0	H	0.99189	0.697728	0.98764
0	H	0.98889	0.313333	0.492457
0	H	0.0485679	0.313723	0.0134613
0	H	0.55034	0.198844	0.511309
0	H	0.493339	0.197595	0.987324
0	H	0.490167	0.813106	0.491606
0	H	0.547272	0.814407	0.0138868
0	H	0.252301	0.0419205	0.641337
0	H	0.788153	0.0471734	0.859409
0	H	0.78738	0.969092	0.361021
0	H	0.251424	0.965617	0.142869
0	H	0.751469	0.541693	0.641947
0	H	0.289369	0.547053	0.859735
0	H	0.288051	0.469036	0.359994
0	H	0.750392	0.466571	0.143011
0	H	0.310239	0.131637	0.673012
0	H	0.73008	0.137359	0.825342
0	H	0.728794	0.87996	0.32863
0	H	0.309489	0.875501	0.176594
0	H	0.809161	0.631684	0.67374
0	H	0.23147	0.637279	0.826067
0	H	0.229646	0.379683	0.327402
0	H	0.808407	0.376565	0.176335
0	H	0.326374	0.0290262	0.65227
0	H	0.713341	0.0366673	0.847478
0	H	0.713281	0.982583	0.349965
0	H	0.325984	0.976365	0.154403
0	H	0.825565	0.529479	0.652807
0	H	0.214719	0.536485	0.848119
0	H	0.213894	0.481918	0.348942
0	H	0.824827	0.47771	0.154329
0	H	0.569022	0.941341	0.969782
0	H	0.472596	0.947105	0.527341
0	H	0.47201	0.0761069	0.0345036
0	H	0.567854	0.06462	0.47457
0	H	0.068776	0.441874	0.970469
0	H	0.972924	0.447933	0.528191
0	H	0.972261	0.575601	0.0332392
0	H	0.0675239	0.564444	0.474472
0	H	0.557834	0.952012	0.893022
0	H	0.485172	0.940331	0.605131
0	H	0.482206	0.0585956	0.11014
0	H	0.554867	0.0715488	0.396538
0	H	0.0567163	0.449334	0.892997
0	H	0.985954	0.441514	0.606283
0	H	0.983325	0.561533	0.109718
0	H	0.0541857	0.571406	0.396212
0	H	0.570506	0.0474578	0.941607
0	H	0.471809	0.0446467	0.565211
0	H	0.468997	0.967374	0.057882
0	H	0.568148	0.967132	0.436295
0	H	0.0697715	0.546579	0.940204
0	H	0.972593	0.545681	0.56618
0	H	0.969633	0.46821	0.0588276
0	H	0.0674187	0.466973	0.435926
0	H	0.149785	0.300406	0.764474
0	H	0.891228	0.301741	0.735708
0	H	0.889812	0.712768	0.237545
0	H	0.148779	0.711193	0.267484
0	H	0.649126	0.800723	0.765291
0	H	0.392116	0.802562	0.736114
0	H	0.390428	0.212181	0.236524
0	H	0.647815	0.210874	0.267135
0	H	0.0667102	0.35442	0.706296
0	H	0.974077	0.35611	0.792395
0	H	0.972732	0.658434	0.29501
0	H	0.0658291	0.656964	0.210199
0	H	0.565876	0.854271	0.70673
0	H	0.475219	0.856333	0.793259
0	H	0.473511	0.158271	0.294301
0	H	0.564615	0.157233	0.209355
0	H	0.100694	0.313192	0.670041
0	H	0.941769	0.315292	0.830459
0	H	0.939428	0.699288	0.332063
0	H	0.0988887	0.697679	0.172889
0	H	0.600354	0.813362	0.670927
0	H	0.442432	0.815671	0.830846
0	H	0.439766	0.198724	0.330976
0	H	0.5982	0.197793	0.172573
0	H	0.860973	0.0526516	0.586957
0	H	0.180759	0.056407	0.91034
0	H	0.179119	0.959607	0.414856
0	H	0.859473	0.957082	0.0919926
0	H	0.359977	0.552777	0.585409
0	H	0.681595	0.556395	0.912203
0	H	0.680104	0.459264	0.416338
0	H	0.358537	0.457569	0.0901105
0	H	0.850422	0.164869	0.560047
0	H	0.191208	0.16728	0.939865
0	H	0.18971	0.847797	0.442576
0	H	0.84898	0.846168	0.0624967
0	H	0.350064	0.665441	0.559754
0	H	0.691708	0.667371	0.941313
0	H	0.690105	0.347032	0.442909
0	H	0.34836	0.346619	0.0608994
0	H	0.877201	0.137472	0.64459
0	H	0.164503	0.144088	0.854708
0	H	0.163017	0.873946	0.357875
0	H	0.875587	0.86946	0.147597
0	H	0.376069	0.636553	0.643688
0	H	0.665762	0.643782	0.856559
0	H	0.664225	0.374548	0.358808
0	H	0.374168	0.370105	0.145598
0	H	0.343754	0.990027	0.00777664
0	H	0.695782	0.987034	0.492922
0	H	0.69672	0.0239534	0.995218
0	H	0.34457	0.0257744	0.509845
0	H	0.844363	0.489483	0.00931945
0	H	0.19526	0.488037	0.492118
0	H	0.196096	0.524034	0.993338
0	H	0.845012	0.524907	0.511006
0	H	0.319397	0.273936	0.999716
0	H	0.72035	0.27086	0.499287
0	H	0.720443	0.739991	0.00228998
0	H	0.319755	0.742006	0.50346
0	H	0.819506	0.773261	0.00120705
0	H	0.220684	0.77173	0.499249
0	H	0.220205	0.240174	0.00052887
0	H	0.819436	0.241225	0.503592
0	H	0.0900449	0.784255	0.67317
0	H	0.952763	0.784716	0.825785
0	H	0.950796	0.22851	0.330061
0	H	0.0873687	0.227929	0.175641
0	H	0.58953	0.284006	0.674106
0	H	0.453146	0.28488	0.82509
0	H	0.451315	0.728417	0.328995
0	H	0.586807	0.728314	0.176317
0	H	0.0928138	0.843795	0.5082
0	H	0.948066	0.841833	0.989673
0	H	0.946922	0.168667	0.494186
0	H	0.091436	0.169178	0.0115012
0	H	0.592315	0.343605	0.509143
0	H	0.44927	0.341644	0.989632
0	H	0.447334	0.668463	0.493033
0	H	0.590372	0.669939	0.0117521
0	H	0.468068	0.951319	0.956334
0	H	0.575997	0.946644	0.546608
0	H	0.572555	0.0627329	0.0465741
0	H	0.464766	0.0653886	0.455886
0	H	0.96783	0.450395	0.956821
0	H	0.0759829	0.447447	0.54671
0	H	0.0728722	0.563551	0.0457029
0	H	0.964659	0.565207	0.456307
0	H	0.448931	0.0344643	0.779904
0	H	0.591505	0.0375836	0.719115
0	H	0.590788	0.978107	0.222146
0	H	0.448086	0.974908	0.282517
0	H	0.947982	0.533976	0.780012
0	H	0.0927047	0.538034	0.720091
0	H	0.0915773	0.478519	0.221505
0	H	0.947079	0.475439	0.282209
0	H	0.974986	0.981288	0.660771
0	H	0.0675069	0.984189	0.838409
0	H	0.0654918	0.0311935	0.341923
0	H	0.972754	0.0291834	0.163755
0	H	0.474356	0.481118	0.660808
0	H	0.567944	0.484267	0.838734
0	H	0.566147	0.531062	0.341861
0	H	0.472165	0.529578	0.163322
0	H	0.959706	0.265951	0.638838
0	H	0.0812579	0.268873	0.859861
0	H	0.080067	0.746447	0.362993
0	H	0.958899	0.744424	0.142952
0	H	0.459092	0.765747	0.63863
0	H	0.582107	0.768835	0.861221
0	H	0.580703	0.24634	0.363131
0	H	0.457965	0.244926	0.141547
0	C	0.331697	0.0531945	0.980287
0	C	0.708331	0.050497	0.520223
0	C	0.708626	0.960637	0.0224732
0	C	0.332002	0.962301	0.482551
0	C	0.832079	0.55265	0.981737
0	C	0.208062	0.551401	0.519645
0	C	0.208211	0.460738	0.0207062
0	C	0.832205	0.461587	0.483428
0	C	0.331371	0.131223	0.00992063
0	C	0.707556	0.128132	0.489448
0	C	0.708756	0.882751	0.992564
0	C	0.332635	0.884719	0.513276
0	C	0.831738	0.63059	0.0114437
0	C	0.207458	0.629074	0.489028
0	C	0.208276	0.382894	0.990708
0	C	0.832712	0.383861	0.513933
0	C	0.316844	0.212548	0.974601
0	C	0.723102	0.20973	0.52481
0	C	0.72311	0.80125	0.0276062
0	C	0.317062	0.803095	0.477941
0	C	0.816949	0.711928	0.976048
0	C	0.223331	0.710557	0.524647
0	C	0.2229	0.301414	0.0258775
0	C	0.816825	0.302439	0.478255
0	C	0.299944	0.216813	0.908836
0	C	0.741131	0.214879	0.591133
0	C	0.739977	0.796636	0.0933418
0	C	0.299051	0.797896	0.411623
0	C	0.799744	0.71627	0.910114
0	C	0.241564	0.715514	0.59109
0	C	0.240106	0.296792	0.0917971
0	C	0.798586	0.297583	0.4118
0	C	0.28367	0.303019	0.871392
0	C	0.757963	0.301409	0.628355
0	C	0.756018	0.710225	0.130456
0	C	0.282168	0.711323	0.374437
0	C	0.783012	0.802416	0.872455
0	C	0.258845	0.801852	0.628685
0	C	0.256581	0.210465	0.129156
0	C	0.781262	0.211285	0.37415
0	C	0.346413	0.127624	0.0786873
0	C	0.689838	0.123974	0.419209
0	C	0.693675	0.886677	0.923782
0	C	0.350323	0.888935	0.5835
0	C	0.846939	0.626722	0.0803013
0	C	0.189755	0.624929	0.418792
0	C	0.19292	0.386999	0.921771
0	C	0.850414	0.387893	0.584172
0	C	0.0976233	0.831283	0.646393
0	C	0.944715	0.831269	0.852415
0	C	0.942924	0.181433	0.356566
0	C	0.095335	0.181071	0.149099
0	C	0.597133	0.33105	0.647349
0	C	0.445224	0.331361	0.851868
0	C	0.4434	0.681333	0.355459
0	C	0.59472	0.681537	0.149686
0	C	0.0920284	0.803385	0.589709
0	C	0.949637	0.802615	0.90851
0	C	0.948232	0.209227	0.413085
0	C	0.0901975	0.20923	0.0927597
0	C	0.591532	0.303157	0.590656
0	C	0.450438	0.302594	0.908136
0	C	0.448698	0.709082	0.411977
0	C	0.589368	0.709805	0.0932236
0	C	0.099161	0.865513	0.553635
0	C	0.942168	0.864155	0.94464
0	C	0.940772	0.147029	0.448858
0	C	0.0975163	0.147277	0.0567318
0	C	0.598623	0.365303	0.554556
0	C	0.443178	0.364038	0.94449
0	C	0.441237	0.646873	0.447737
0	C	0.596576	0.647969	0.0570469
0	C	0.11428	0.954419	0.574754
0	C	0.927325	0.953225	0.924066
0	C	0.925697	0.0581682	0.427657
0	C	0.112474	0.0583145	0.0776536
0	C	0.613721	0.454202	0.57567
0	C	0.428227	0.453103	0.923948
0	C	0.426132	0.558014	0.426495
0	C	0.611664	0.559005	0.0779637
0	C	0.120294	0.0206962	0.535715
0	C	0.921028	0.0191599	0.963052
0	C	0.919511	0.99172	0.466467
0	C	0.118523	0.991999	0.0386748
0	C	0.619651	0.520503	0.536571
0	C	0.422154	0.518965	0.963152
0	C	0.419935	0.491569	0.465296
0	C	0.617581	0.492779	0.0388323
0	C	0.0795549	0.708017	0.568211
0	C	0.961806	0.707077	0.92949
0	C	0.960814	0.304529	0.434774
0	C	0.0779959	0.304662	0.0714692
0	C	0.579149	0.207802	0.569178
0	C	0.462662	0.207042	0.929047
0	C	0.461222	0.804373	0.433678
0	C	0.577092	0.805249	0.0719806
0	C	0.435782	0.97332	0.900023
0	C	0.607426	0.970952	0.602198
0	C	0.604627	0.0402457	0.10273
0	C	0.433076	0.0412275	0.40021
0	C	0.935431	0.472631	0.900546
0	C	0.10765	0.47166	0.602367
0	C	0.105004	0.540815	0.101811
0	C	0.932795	0.541209	0.40056
0	C	0.466768	0.991895	0.873156
0	C	0.575459	0.991029	0.627759
0	C	0.573399	0.0215676	0.129331
0	C	0.464705	0.0211368	0.374281
0	C	0.966179	0.49119	0.873433
0	C	0.0760436	0.491714	0.628317
0	C	0.0739516	0.522214	0.128597
0	C	0.964161	0.521256	0.374331
0	C	0.424527	0.020037	0.800452
0	C	0.616748	0.021876	0.699669
0	C	0.615359	0.992726	0.201806
0	C	0.423094	0.990558	0.302249
0	C	0.92375	0.519537	0.800745
0	C	0.117678	0.522312	0.700349
0	C	0.116035	0.493118	0.201037
0	C	0.922287	0.491009	0.302172
0	C	0.351845	0.0305799	0.753724
0	C	0.689389	0.0334764	0.746856
0	C	0.688036	0.981734	0.248641
0	C	0.350471	0.979145	0.255312
0	C	0.851125	0.530289	0.754288
0	C	0.190307	0.533678	0.747268
0	C	0.188646	0.481841	0.247641
0	C	0.84967	0.479805	0.255409
0	C	0.308668	0.0590071	0.676749
0	C	0.731693	0.0645162	0.823068
0	C	0.730881	0.952585	0.325389
0	C	0.307858	0.948331	0.178987
0	C	0.807799	0.558993	0.677354
0	C	0.232941	0.564441	0.823609
0	C	0.231573	0.452368	0.324324
0	C	0.80682	0.449369	0.17895
0	C	0.544119	0.982527	0.921272
0	C	0.498153	0.980177	0.579365
0	C	0.496076	0.0315999	0.0811068
0	C	0.542	0.0316975	0.422408
0	C	0.0434471	0.481566	0.921157
0	C	0.998774	0.481094	0.580265
0	C	0.996719	0.532612	0.0807356
0	C	0.0414251	0.531627	0.422207
0	C	0.99892	0.045498	0.669507
0	C	0.0432962	0.0480897	0.829826
0	C	0.0414073	0.967054	0.333015
0	C	0.996942	0.965201	0.172493
0	C	0.498371	0.54535	0.669744
0	C	0.543747	0.548206	0.830133
0	C	0.541972	0.466897	0.332715
0	C	0.496361	0.465562	0.172119
0	C	0.958984	0.123299	0.645073
0	C	0.0827667	0.126256	0.853977
0	C	0.0811339	0.889104	0.357185
0	C	0.957434	0.887086	0.14848
0	C	0.458367	0.623134	0.644943
0	C	0.583411	0.62628	0.854872
0	C	0.581773	0.388957	0.357263
0	C	0.456676	0.387531	0.147519
0	C	0.990883	0.205592	0.657765
0	C	0.0504947	0.208186	0.841311
0	C	0.0490384	0.806909	0.344263
0	C	0.989694	0.805066	0.161373
0	C	0.490335	0.705434	0.657862
0	C	0.551188	0.708244	0.842195
0	C	0.549602	0.306756	0.344077
0	C	0.488912	0.305479	0.160458
0	C	0.0616742	0.211727	0.694242
0	C	0.979811	0.213586	0.805287
0	C	0.978244	0.801006	0.307815
0	C	0.0603919	0.799509	0.197463
0	C	0.561279	0.71164	0.694893
0	C	0.480358	0.713824	0.805637
0	C	0.478635	0.300765	0.307012
0	C	0.559764	0.299764	0.197126
0	C	0.0956772	0.299164	0.709336
0	C	0.945712	0.300878	0.790372
0	C	0.944072	0.713651	0.292515
0	C	0.0944753	0.712133	0.212609
0	C	0.595143	0.799213	0.710051
0	C	0.446502	0.801277	0.790861
0	C	0.444578	0.213277	0.291588
0	C	0.593625	0.21223	0.212161
0	C	0.883683	0.119206	0.607137
0	C	0.158026	0.123178	0.891729
0	C	0.156451	0.892962	0.39514
0	C	0.882146	0.890282	0.110624
0	C	0.382894	0.619101	0.606385
0	C	0.658844	0.623127	0.893268
0	C	0.657267	0.392809	0.395878
0	C	0.381207	0.390794	0.108991
