#******************************************
#
# CIF file created by Zeo++
# Zeo++ is an open source package to
# analyze microporous materials
#
#*******************************************

_cell_length_a		12.1095(0)
_cell_length_b		16.4806(0)
_cell_length_c		19.6731(0)
_cell_angle_alpha		74.3527(0)
_cell_angle_beta		80.7918(0)
_cell_angle_gamma		69.5512(0)

_symmetry_space_group_name_H-M		'P1'
_symmetry_Int_Tables_number		1
_symmetry_cell_setting		Triclinic

loop_
_symmetry_equiv_pos_as_xyz
'+x,+y,+z'

loop_
_atom_site_label
_atom_site_type_symbol
_atom_site_fract_x
_atom_site_fract_y
_atom_site_fract_z
0	N	0.00324006	0.576699	0.2384
0	N	0.924669	0.373527	0.784586
0	N	0.833533	0.705296	0.243721
0	N	0.0944152	0.24496	0.779255
0	N	0.674424	0.477925	0.35139
0	N	0.253463	0.472353	0.671484
0	N	0.63194	0.418802	0.270914
0	N	0.295901	0.531489	0.751971
0	C	0.944959	0.670248	0.224382
0	C	0.982962	0.279992	0.798554
0	C	0.766474	0.647548	0.290604
0	C	0.161401	0.302703	0.73233
0	C	0.815243	0.553496	0.277347
0	C	0.112619	0.396788	0.745524
0	C	0.932106	0.520144	0.257144
0	C	0.995764	0.430117	0.76573
0	C	0.735848	0.501429	0.286567
0	C	0.191978	0.448884	0.736281
0	C	0.612379	0.427957	0.341248
0	C	0.315514	0.522312	0.681643
0	C	0.710741	0.464907	0.235911
0	C	0.217054	0.485424	0.786944
0	C	0.0163556	0.727991	0.185032
0	C	0.911567	0.222239	0.837873
0	C	0.0970087	0.705471	0.127967
0	C	0.830799	0.244785	0.894882
0	H	0.110219	0.644212	0.111952
0	H	0.817455	0.30609	0.910863
0	C	0.160039	0.762471	0.0908533
0	C	0.767806	0.187754	0.931988
0	H	0.223063	0.745235	0.0461814
0	H	0.704629	0.205037	0.976581
0	C	0.142408	0.842132	0.110047
0	C	0.785688	0.108004	0.91288
0	H	0.190651	0.887064	0.0800544
0	H	0.737535	0.0630201	0.942895
0	C	0.0622308	0.864627	0.166864
0	C	0.865944	0.0854924	0.856109
0	H	0.0471975	0.927271	0.181252
0	H	0.881129	0.0227958	0.84177
0	C	0.99944	0.807655	0.204576
0	C	0.928633	0.142531	0.818362
0	H	0.936313	0.825331	0.248735
0	H	0.991769	0.124869	0.774203
0	C	0.784767	0.64641	0.366683
0	C	0.143159	0.303735	0.656275
0	C	0.777306	0.726077	0.383084
0	C	0.150521	0.224035	0.639975
0	H	0.755169	0.788357	0.342802
0	H	0.172542	0.1618	0.680319
0	C	0.798711	0.726555	0.450649
0	C	0.129238	0.223435	0.572425
0	H	0.792481	0.788988	0.462371
0	H	0.135431	0.160957	0.560818
0	C	0.827574	0.647362	0.502927
0	C	0.100624	0.302512	0.520032
0	H	0.844757	0.647558	0.555455
0	H	0.0835198	0.302245	0.467516
0	C	0.834296	0.567986	0.487119
0	C	0.0939403	0.38195	0.53573
0	H	0.85642	0.505939	0.527502
0	H	0.0720147	0.443909	0.495256
0	C	0.813022	0.567456	0.419455
0	C	0.115111	0.382595	0.603397
0	H	0.817937	0.504645	0.408507
0	H	0.110295	0.445423	0.614264
0	C	0.636736	0.690102	0.273841
0	C	0.291186	0.260121	0.74909
0	C	0.546753	0.68425	0.327717
0	C	0.381152	0.266041	0.695227
0	H	0.569514	0.648171	0.381643
0	H	0.358382	0.302167	0.641308
0	C	0.428225	0.722182	0.312391
0	C	0.499688	0.228051	0.710549
0	H	0.359249	0.716864	0.354582
0	H	0.568603	0.233451	0.668325
0	C	0.398118	0.766128	0.243103
0	C	0.529836	0.184011	0.779774
0	H	0.305785	0.795456	0.2312
0	H	0.622204	0.154663	0.791669
0	C	0.487378	0.771125	0.189085
0	C	0.440555	0.178953	0.833792
0	H	0.464837	0.804358	0.134817
0	H	0.463097	0.145641	0.888041
0	C	0.606084	0.732797	0.20427
0	C	0.321873	0.217299	0.818654
0	H	0.674767	0.736061	0.161345
0	H	0.253168	0.213967	0.861562
0	C	0.537297	0.385735	0.394272
0	C	0.390637	0.564479	0.628607
0	C	0.457824	0.433365	0.441107
0	C	0.470088	0.51679	0.58181
0	H	0.452462	0.501819	0.437862
0	H	0.475394	0.448345	0.585069
0	C	0.385699	0.392991	0.491166
0	C	0.542225	0.557117	0.531704
0	H	0.323515	0.429769	0.52786
0	H	0.604328	0.520311	0.495001
0	C	0.392621	0.305585	0.494377
0	C	0.535452	0.644488	0.528495
0	H	0.334892	0.274841	0.533085
0	H	0.593221	0.675186	0.489771
0	C	0.472156	0.258004	0.447845
0	C	0.455968	0.692118	0.575014
0	H	0.477428	0.189947	0.450304
0	H	0.450808	0.760155	0.572552
0	C	0.544813	0.297657	0.397787
0	C	0.383191	0.652566	0.625045
0	H	0.606695	0.26042	0.361456
0	H	0.321269	0.689848	0.661346
0	C	0.753986	0.465271	0.162338
0	C	0.173805	0.484964	0.860519
0	C	0.775453	0.388693	0.136968
0	C	0.15231	0.561551	0.885982
0	H	0.761676	0.328796	0.172275
0	H	0.166136	0.62143	0.850715
0	C	0.815631	0.388504	0.0664728
0	C	0.112054	0.561635	0.956457
0	H	0.831957	0.328908	0.0472653
0	H	0.0957224	0.621181	0.975746
0	C	0.834694	0.464506	0.0211179
0	C	0.092846	0.485602	0.0017168
0	H	0.866002	0.464223	0.965807
0	H	0.0613361	0.485852	0.0569829
0	C	0.814742	0.540467	0.0462972
0	C	0.112918	0.409696	0.976467
0	H	0.830465	0.59936	0.0108245
0	H	0.0971321	0.350792	0.0118634
0	C	0.774534	0.541209	0.116799
0	C	0.153328	0.408998	0.905978
0	H	0.758393	0.600351	0.136685
0	H	0.169587	0.349881	0.886054
0	C	0.991191	0.427405	0.249454
0	C	0.936621	0.522859	0.773423
0	C	0.981815	0.356121	0.30583
0	C	0.946201	0.594131	0.717081
0	H	0.936001	0.369309	0.356182
0	H	0.992046	0.580968	0.666754
0	C	0.0272861	0.269242	0.296311
0	C	0.900704	0.681008	0.726625
0	H	0.0185031	0.213918	0.339543
0	H	0.909625	0.736352	0.683424
0	C	0.0823422	0.25308	0.230901
0	C	0.845454	0.697193	0.791998
0	H	0.114014	0.18544	0.223063
0	H	0.813792	0.764811	0.799872
0	C	0.0960981	0.323515	0.175706
0	C	0.831475	0.626748	0.847134
0	H	0.14128	0.310805	0.125166
0	H	0.786091	0.639462	0.897631
0	C	0.0506863	0.410582	0.184928
0	C	0.876913	0.539677	0.837904
0	H	0.0582853	0.465838	0.140593
0	H	0.869135	0.484449	0.882199
0	N	0.338197	0.256177	0.26906
0	N	0.589674	0.694005	0.753891
0	N	0.49872	0.305488	0.206629
0	N	0.429217	0.644684	0.816406
0	N	0.580951	0.0527699	0.127904
0	N	0.347004	0.897445	0.89507
0	N	0.651099	0.91825	0.203424
0	N	0.276815	0.0319313	0.819511
0	C	0.397692	0.320453	0.244181
0	C	0.530191	0.629729	0.778786
0	C	0.545678	0.227	0.173913
0	C	0.382291	0.723176	0.849107
0	C	0.493994	0.152083	0.211972
0	C	0.433961	0.798093	0.811023
0	C	0.392449	0.17003	0.254373
0	C	0.535441	0.780153	0.768555
0	C	0.555731	0.0643735	0.197239
0	C	0.372228	0.885807	0.825745
0	C	0.638114	0.964426	0.132188
0	C	0.289809	0.985789	0.890754
0	C	0.597947	0.981079	0.24484
0	C	0.329974	0.969075	0.77812
0	C	0.341273	0.40707	0.265092
0	C	0.586551	0.543161	0.757799
0	C	0.275471	0.413443	0.330043
0	C	0.652495	0.536874	0.692881
0	H	0.263888	0.354294	0.367633
0	H	0.664137	0.596046	0.655355
0	C	0.227478	0.495943	0.348103
0	C	0.70056	0.454424	0.674741
0	H	0.176949	0.500621	0.398862
0	H	0.751202	0.449836	0.624002
0	C	0.245882	0.571918	0.302092
0	C	0.682048	0.378421	0.720606
0	H	0.210229	0.635801	0.316963
0	H	0.717747	0.314581	0.70568
0	C	0.310668	0.565836	0.237047
0	C	0.616975	0.384445	0.785595
0	H	0.325736	0.625034	0.20123
0	H	0.60172	0.325237	0.82128
0	C	0.357359	0.483897	0.218271
0	C	0.570274	0.466301	0.804469
0	H	0.407598	0.479041	0.167092
0	H	0.519824	0.471111	0.855594
0	C	0.50915	0.264729	0.0973703
0	C	0.418804	0.685479	0.925644
0	C	0.551724	0.331388	0.0528497
0	C	0.37632	0.61875	0.970133
0	H	0.610391	0.355595	0.0728718
0	H	0.317727	0.594512	0.95008
0	C	0.517629	0.367749	0.983636
0	C	0.410419	0.582382	0.0393389
0	H	0.549433	0.42056	0.949685
0	H	0.378792	0.529452	0.073242
0	C	0.441312	0.337876	0.957836
0	C	0.486506	0.612417	0.0652126
0	H	0.414313	0.366143	0.903891
0	H	0.513421	0.584183	0.119169
0	C	0.397907	0.272163	0.00205107
0	C	0.529812	0.678188	0.0210321
0	H	0.33825	0.248648	0.982432
0	H	0.589316	0.701826	0.0406796
0	C	0.430407	0.236701	0.0717104
0	C	0.497426	0.713591	0.951336
0	H	0.394663	0.185831	0.105211
0	H	0.533173	0.764458	0.917839
0	C	0.679618	0.190045	0.179693
0	C	0.248343	0.760117	0.843323
0	C	0.756028	0.15923	0.123886
0	C	0.171898	0.79086	0.899152
0	H	0.720122	0.163203	0.0749519
0	H	0.207779	0.786882	0.948106
0	C	0.877536	0.121242	0.131072
0	C	0.0503879	0.828756	0.891981
0	H	0.936091	0.0967959	0.0875831
0	H	0.991786	0.853086	0.935499
0	C	0.923901	0.113746	0.194011
0	C	0.0040289	0.836368	0.829013
0	H	0.0184426	0.0837804	0.199705
0	H	0.909538	0.866234	0.823334
0	C	0.848216	0.144641	0.249709
0	C	0.0798032	0.805552	0.773271
0	H	0.884008	0.13929	0.298669
0	H	0.044026	0.811014	0.724287
0	C	0.726578	0.182545	0.242747
0	C	0.201409	0.767659	0.78025
0	H	0.668198	0.206501	0.286593
0	H	0.2598	0.743756	0.736384
0	C	0.675836	0.922579	0.0717198
0	C	0.252005	0.0276925	0.951197
0	C	0.614283	0.962906	0.00999689
0	C	0.313665	0.98756	0.0128863
0	H	0.540221	0.0247786	0.00789904
0	H	0.387919	0.92579	0.0149771
0	C	0.647892	0.923849	0.951955
0	C	0.279919	0.0266846	0.0708971
0	H	0.599539	0.955214	0.904366
0	H	0.328397	0.995497	0.118452
0	C	0.741985	0.844243	0.955172
0	C	0.185461	0.106093	0.0676975
0	H	0.767565	0.813381	0.910122
0	H	0.159751	0.136996	0.112738
0	C	0.80333	0.804159	0.0164505
0	C	0.124046	0.145982	0.00644926
0	H	0.876935	0.742348	0.0190123
0	H	0.0501858	0.207643	0.00389838
0	C	0.771177	0.84333	0.0744901
0	C	0.156392	0.106778	0.948427
0	H	0.821021	0.812471	0.121617
0	H	0.106508	0.13749	0.901312
0	C	0.586664	0.956734	0.322032
0	C	0.341178	0.993423	0.700929
0	C	0.532487	0.892266	0.356494
0	C	0.395339	0.057893	0.666437
0	H	0.500514	0.860032	0.325631
0	H	0.427365	0.0901297	0.697291
0	C	0.518846	0.87004	0.43028
0	C	0.408882	0.0801397	0.592661
0	H	0.476089	0.820435	0.456693
0	H	0.451585	0.129787	0.566229
0	C	0.559764	0.9112	0.469853
0	C	0.368019	0.0389234	0.553119
0	H	0.549341	0.89342	0.527503
0	H	0.378498	0.0566558	0.495467
0	C	0.612685	0.975969	0.435544
0	C	0.315093	0.97417	0.58744
0	H	0.64274	0.00893271	0.466471
0	H	0.285082	0.94116	0.556537
0	C	0.626326	0.998944	0.361706
0	C	0.301361	0.951268	0.661292
0	H	0.667419	0.0494319	0.334527
0	H	0.260182	0.900845	0.688475
0	C	0.328841	0.105985	0.290486
0	C	0.598985	0.844219	0.732359
0	C	0.303777	0.0544672	0.252356
0	C	0.624159	0.895768	0.77042
0	H	0.334837	0.0595032	0.196553
0	H	0.593155	0.890785	0.826221
0	C	0.240756	0.996227	0.286053
0	C	0.687203	0.953965	0.736626
0	H	0.222201	0.955792	0.256546
0	H	0.705884	0.994398	0.766093
0	C	0.202389	0.989083	0.357738
0	C	0.72545	0.961057	0.664935
0	H	0.153225	0.943638	0.383869
0	H	0.774602	0.00649037	0.638735
0	C	0.228099	0.0397678	0.395947
0	C	0.699644	0.910349	0.626818
0	H	0.199169	0.0337631	0.451921
0	H	0.728494	0.916296	0.570833
0	C	0.291483	0.0979361	0.362627
0	C	0.636235	0.852214	0.660208
0	H	0.312856	0.1365	0.392767
0	H	0.614801	0.813615	0.630138
0	H	0.092675	0.55038	0.231074
0	H	0.8352	0.399843	0.791693
0	H	0.692488	0.851825	0.221991
0	H	0.2354	0.0983455	0.800924
0	H	0.593726	0.387631	0.247966
0	H	0.334069	0.562684	0.77493
0	H	0.250131	0.275311	0.284541
0	H	0.677699	0.674896	0.738301
