#******************************************
#
# CIF file created by Zeo++
# Zeo++ is an open source package to
# analyze microporous materials
#
#*******************************************

_cell_length_a		15.6524(0)
_cell_length_b		21.6516(0)
_cell_length_c		11.0412(0)
_cell_angle_alpha		90(0)
_cell_angle_beta		90(0)
_cell_angle_gamma		90(0)

_symmetry_space_group_name_H-M		'P1'
_symmetry_Int_Tables_number		1
_symmetry_cell_setting		Monoclinic

loop_
_symmetry_equiv_pos_as_xyz
'+x,+y,+z'

loop_
_atom_site_label
_atom_site_type_symbol
_atom_site_fract_x
_atom_site_fract_y
_atom_site_fract_z
0	N	0.572234	0.740661	0.399461
0	N	0.432558	0.260147	0.899828
0	N	0.432723	0.74045	0.103397
0	N	0.572306	0.259942	0.603415
0	N	0.0719384	0.240282	0.399784
0	N	0.932914	0.760198	0.899951
0	N	0.932905	0.240096	0.102975
0	N	0.0718324	0.759994	0.603267
0	N	0.77811	0.841715	0.323791
0	N	0.226899	0.158972	0.824183
0	N	0.22702	0.841543	0.178726
0	N	0.778214	0.158803	0.679199
0	N	0.276408	0.341839	0.323565
0	N	0.728735	0.658638	0.823965
0	N	0.72871	0.34171	0.179027
0	N	0.276342	0.658475	0.67925
0	N	0.65617	0.82946	0.451259
0	N	0.348872	0.17124	0.951489
0	N	0.349105	0.829383	0.0515784
0	N	0.656345	0.171208	0.551678
0	N	0.154707	0.329591	0.451514
0	N	0.850653	0.670641	0.951612
0	N	0.850547	0.32961	0.0513494
0	N	0.154506	0.670625	0.551484
0	C	0.904698	0.959436	0.897091
0	C	0.100234	0.0409604	0.396921
0	C	0.10022	0.959464	0.60609
0	C	0.904791	0.0410297	0.10612
0	C	0.40299	0.459633	0.897185
0	C	0.601839	0.540824	0.397169
0	C	0.601852	0.459638	0.605967
0	C	0.403102	0.540855	0.105833
0	C	0.858475	0.933974	0.824221
0	C	0.146316	0.0663429	0.323757
0	C	0.146393	0.934038	0.679082
0	C	0.858501	0.0664844	0.178923
0	C	0.356571	0.434126	0.824618
0	C	0.648125	0.566248	0.324309
0	C	0.648203	0.434183	0.678704
0	C	0.356604	0.566359	0.178311
0	C	0.805781	0.906522	0.73459
0	C	0.198961	0.0938665	0.23414
0	C	0.199048	0.906546	0.768735
0	C	0.805764	0.0939833	0.268455
0	C	0.303925	0.406556	0.735086
0	C	0.700771	0.593792	0.234716
0	C	0.700848	0.406608	0.768251
0	C	0.303893	0.593892	0.267831
0	C	0.783886	0.843543	0.73881
0	C	0.22071	0.15687	0.238574
0	C	0.220718	0.843535	0.764553
0	C	0.783937	0.156965	0.264139
0	C	0.282115	0.343567	0.739296
0	C	0.722531	0.65679	0.238889
0	C	0.722535	0.343598	0.764037
0	C	0.282168	0.656901	0.263855
0	H	0.80718	0.814537	0.813097
0	H	0.197246	0.185791	0.312884
0	H	0.197176	0.814539	0.690413
0	H	0.807234	0.18592	0.189775
0	H	0.305332	0.31458	0.813653
0	H	0.699134	0.685806	0.313086
0	H	0.699126	0.314623	0.689791
0	H	0.305497	0.685948	0.18966
0	C	0.7344	0.8173	0.647085
0	C	0.270312	0.183225	0.14708
0	C	0.270379	0.817243	0.856085
0	C	0.734492	0.183268	0.355866
0	C	0.232791	0.317302	0.647387
0	C	0.772086	0.68303	0.147175
0	C	0.772043	0.317309	0.855739
0	C	0.232763	0.683097	0.355764
0	H	0.719201	0.768156	0.649739
0	H	0.28539	0.232386	0.14988
0	H	0.285409	0.768072	0.853407
0	H	0.719331	0.232418	0.353172
0	H	0.217552	0.268163	0.649997
0	H	0.78726	0.73218	0.149778
0	H	0.787179	0.268154	0.8531
0	H	0.217566	0.732246	0.353323
0	C	0.706588	0.854317	0.550495
0	C	0.298425	0.146279	0.0505915
0	C	0.298579	0.85425	0.952424
0	C	0.706673	0.146277	0.452456
0	C	0.205154	0.354343	0.550757
0	C	0.800044	0.645959	0.0507955
0	C	0.800003	0.354354	0.952173
0	C	0.204996	0.645962	0.452181
0	C	0.726698	0.91765	0.546429
0	C	0.278462	0.0829162	0.0463257
0	C	0.278584	0.917624	0.956508
0	C	0.72666	0.0829084	0.45655
0	C	0.225196	0.417691	0.546722
0	C	0.780014	0.582595	0.0467594
0	C	0.780044	0.417726	0.956256
0	C	0.224981	0.582598	0.455998
0	H	0.704277	0.945867	0.4711
0	H	0.301132	0.0547671	0.971046
0	H	0.301261	0.945825	0.0317499
0	H	0.704143	0.054716	0.531881
0	H	0.20279	0.445888	0.4713
0	H	0.802622	0.554389	0.971504
0	H	0.802661	0.445909	0.0315436
0	H	0.202464	0.554332	0.53124
0	C	0.776386	0.943388	0.637883
0	C	0.228608	0.0570782	0.137475
0	C	0.228768	0.9434	0.865299
0	C	0.77628	0.0571279	0.365145
0	C	0.274675	0.443443	0.6383
0	C	0.730276	0.556887	0.13809
0	C	0.730364	0.443487	0.864903
0	C	0.274471	0.556914	0.364383
0	H	0.793331	0.992317	0.634717
0	H	0.211765	0.00813817	0.134121
0	H	0.211975	0.992353	0.868477
0	H	0.793145	0.00818367	0.368284
0	H	0.291575	0.492377	0.635266
0	H	0.713384	0.507951	0.135022
0	H	0.713516	0.492431	0.868006
0	H	0.291256	0.507955	0.367194
0	C	0.586504	0.788822	0.477525
0	C	0.418531	0.211883	0.977713
0	C	0.418707	0.788681	0.0254254
0	C	0.586631	0.211781	0.525388
0	C	0.0855912	0.288515	0.477871
0	C	0.919642	0.711849	0.977865
0	C	0.919587	0.288446	0.0250468
0	C	0.0854464	0.711769	0.525165
0	C	0.532899	0.800957	0.577934
0	C	0.472382	0.199633	0.077808
0	C	0.472561	0.80087	0.925296
0	C	0.533063	0.199603	0.424968
0	C	0.0319533	0.300335	0.57835
0	C	0.973572	0.700029	0.0780448
0	C	0.973491	0.300311	0.924895
0	C	0.0318248	0.700012	0.424651
0	H	0.546582	0.838988	0.639172
0	H	0.458812	0.161544	0.139002
0	H	0.459009	0.838943	0.864078
0	H	0.546821	0.161594	0.363687
0	H	0.0451488	0.338471	0.639536
0	H	0.960585	0.661776	0.139143
0	H	0.960469	0.338519	0.863753
0	H	0.0450224	0.661849	0.363447
0	C	0.461159	0.763637	0.594219
0	C	0.544247	0.236866	0.0937309
0	C	0.544368	0.76358	0.909335
0	C	0.461223	0.236829	0.40876
0	C	0.960756	0.26248	0.59466
0	C	0.0447489	0.737888	0.0941272
0	C	0.0446935	0.262449	0.908835
0	C	0.960657	0.73786	0.408294
0	H	0.4177	0.77214	0.669879
0	H	0.587973	0.228248	0.169037
0	H	0.588039	0.772149	0.833946
0	H	0.417766	0.228278	0.333128
0	H	0.917273	0.270662	0.670411
0	H	0.0884612	0.729688	0.169613
0	H	0.0883977	0.270677	0.833347
0	H	0.917211	0.729722	0.332481
0	C	0.444367	0.715546	0.513173
0	C	0.560888	0.284987	0.0127031
0	C	0.560946	0.715423	0.990321
0	C	0.444312	0.284876	0.489864
0	C	0.944492	0.214364	0.513496
0	C	0.0606835	0.786109	0.0130238
0	C	0.0606698	0.214241	0.989912
0	C	0.944411	0.785974	0.489488
0	H	0.387261	0.686807	0.523615
0	H	0.618156	0.313601	0.0227867
0	H	0.61812	0.686729	0.980156
0	H	0.38711	0.313516	0.479497
0	H	0.887693	0.185318	0.523881
0	H	0.117505	0.815167	0.0231341
0	H	0.117515	0.185208	0.979809
0	H	0.887644	0.815048	0.47911
0	C	0.501682	0.705246	0.417745
0	C	0.503242	0.295484	0.917775
0	C	0.503331	0.705005	0.0853459
0	C	0.501656	0.295258	0.58523
0	C	0.00184647	0.20443	0.417974
0	C	0.0029981	0.796125	0.917986
0	C	0.00296858	0.204186	0.0849649
0	C	0.00177159	0.795878	0.585037
0	H	0.492131	0.667389	0.352738
0	H	0.512614	0.333394	0.852807
0	H	0.512629	0.667045	0.150183
0	H	0.492034	0.333069	0.650321
0	H	0.99275	0.166557	0.352885
0	H	0.0117883	0.834129	0.853059
0	H	0.0117775	0.166181	0.149849
0	H	0.992703	0.833769	0.650082
0	C	0.691335	0.833989	0.331346
0	C	0.31367	0.166708	0.83161
0	C	0.313808	0.833855	0.171427
0	C	0.691448	0.166585	0.671588
0	C	0.189663	0.334126	0.331479
0	C	0.8155	0.666269	0.831655
0	C	0.815464	0.33405	0.171333
0	C	0.189592	0.666161	0.671468
0	C	0.637713	0.835835	0.228218
0	C	0.367242	0.164814	0.728432
0	C	0.367283	0.835738	0.27469
0	C	0.637783	0.16471	0.774653
0	C	0.13576	0.335884	0.228657
0	C	0.869268	0.664523	0.728663
0	C	0.869262	0.335834	0.274294
0	C	0.13576	0.664432	0.774367
0	H	0.569234	0.827998	0.236345
0	H	0.435721	0.172703	0.736476
0	H	0.435797	0.827873	0.266749
0	H	0.569312	0.172587	0.766479
0	H	0.0672533	0.328051	0.237163
0	H	0.937783	0.672357	0.736987
0	H	0.937759	0.327985	0.265963
0	H	0.067238	0.672245	0.765944
0	C	0.674969	0.847638	0.11605
0	C	0.329944	0.152854	0.616383
0	C	0.329879	0.847658	0.386694
0	C	0.674977	0.1528	0.886805
0	C	0.172729	0.347586	0.116293
0	C	0.832124	0.652819	0.616407
0	C	0.832121	0.347611	0.386529
0	C	0.17283	0.652774	0.886689
0	H	0.635039	0.849887	0.0350459
0	H	0.369808	0.150553	0.535327
0	H	0.369693	0.849955	0.467811
0	H	0.63501	0.150536	0.967763
0	H	0.132635	0.349732	0.0354393
0	H	0.872101	0.650658	0.53544
0	H	0.872111	0.349804	0.467488
0	H	0.132774	0.650644	0.967591
0	C	0.763303	0.857115	0.107319
0	C	0.241603	0.143313	0.607801
0	C	0.241536	0.857154	0.395143
0	C	0.763296	0.143271	0.895574
0	C	0.26105	0.357067	0.10715
0	C	0.743782	0.643365	0.607521
0	C	0.743787	0.357093	0.39542
0	C	0.261155	0.643322	0.895725
0	H	0.793165	0.86758	0.020517
0	H	0.211716	0.132696	0.521088
0	H	0.211559	0.867745	0.481816
0	H	0.793109	0.132731	0.982387
0	H	0.290705	0.367466	0.0201731
0	H	0.714014	0.632912	0.520651
0	H	0.714018	0.367591	0.482276
0	H	0.290877	0.632949	0.982669
0	C	0.812422	0.853485	0.212991
0	C	0.192526	0.147044	0.713474
0	C	0.192548	0.853433	0.28938
0	C	0.812468	0.146919	0.789959
0	C	0.310442	0.353545	0.212576
0	C	0.694535	0.646937	0.71307
0	C	0.694526	0.353486	0.2899
0	C	0.310465	0.646809	0.790218
0	H	0.881928	0.860252	0.211462
0	H	0.123026	0.140266	0.712062
0	H	0.12304	0.860183	0.290679
0	H	0.881959	0.140114	0.79154
0	H	0.379932	0.360312	0.210673
0	H	0.62503	0.640227	0.711372
0	H	0.625024	0.360219	0.29159
0	H	0.37996	0.640051	0.792021
0	C	0.0402391	0.0565487	0.915827
0	C	0.964714	0.943916	0.41578
0	C	0.964782	0.056515	0.587301
0	C	0.040392	0.943918	0.0870197
0	C	0.539627	0.556398	0.916241
0	C	0.465339	0.444101	0.416213
0	C	0.465317	0.556352	0.586882
0	C	0.539701	0.444084	0.0865271
0	H	0.00229497	0.0960728	0.88359
0	H	0.00269132	0.904376	0.383691
0	H	0.00280016	0.096007	0.619543
0	H	0.00249272	0.904362	0.119237
0	H	0.502415	0.596172	0.883617
0	H	0.502603	0.404328	0.383696
0	H	0.502589	0.596102	0.619516
0	H	0.502507	0.404294	0.119148
0	H	0.0699012	0.0346577	0.835858
0	H	0.935213	0.965824	0.335687
0	H	0.935195	0.0345917	0.667244
0	H	0.0701301	0.965785	0.166978
0	H	0.569457	0.53431	0.836532
0	H	0.435687	0.466214	0.336472
0	H	0.435569	0.534224	0.666544
0	H	0.569571	0.46615	0.166133
0	H	0.0924151	0.0753793	0.972247
0	H	0.912421	0.925119	0.471994
0	H	0.912573	0.0753972	0.531024
0	H	0.092513	0.925141	0.0304368
0	H	0.591838	0.574873	0.973055
0	H	0.413024	0.425606	0.472798
0	H	0.413066	0.574876	0.530208
0	H	0.591845	0.425607	0.029581
0	Si	0.974283	0.00023474	0.00154728
0	Si	0.0307042	0.000212601	0.501502
0	Si	0.472991	0.500243	0.00144022
0	Si	0.531938	0.500227	0.501573
