#******************************************
#
# CIF file created by Zeo++
# Zeo++ is an open source package to
# analyze microporous materials
#
#*******************************************

_cell_length_a		13.4673(0)
_cell_length_b		17.3066(0)
_cell_length_c		31.6042(0)
_cell_angle_alpha		81.2874(0)
_cell_angle_beta		77.4631(0)
_cell_angle_gamma		80.5106(0)

_symmetry_space_group_name_H-M		'P1'
_symmetry_Int_Tables_number		1
_symmetry_cell_setting		Triclinic

loop_
_symmetry_equiv_pos_as_xyz
'+x,+y,+z'

loop_
_atom_site_label
_atom_site_type_symbol
_atom_site_fract_x
_atom_site_fract_y
_atom_site_fract_z
0	C	0.0124915	0.535341	0.688875
0	C	0.974374	0.648791	0.241974
0	H	0.0478479	0.558711	0.712454
0	H	0.93914	0.625402	0.218364
0	H	0.937176	0.57229	0.688375
0	H	0.0496658	0.611837	0.242531
0	C	0.999926	0.450483	0.704927
0	C	0.986969	0.733644	0.225915
0	C	0.0776095	0.401054	0.723854
0	C	0.909301	0.783065	0.206977
0	C	0.0761677	0.319	0.733161
0	C	0.910772	0.865115	0.197646
0	C	0.989901	0.288503	0.727976
0	C	0.997032	0.89562	0.202834
0	H	0.988077	0.22516	0.736025
0	H	0.998881	0.958955	0.194763
0	C	0.907635	0.337214	0.713061
0	C	0.079275	0.846906	0.217769
0	C	0.915308	0.417899	0.700423
0	C	0.0715908	0.766229	0.230419
0	H	0.853954	0.455783	0.686782
0	H	0.132921	0.728334	0.24407
0	C	0.810702	0.305494	0.709198
0	C	0.176226	0.878629	0.221616
0	C	0.715323	0.356353	0.732692
0	C	0.271561	0.827864	0.198029
0	H	0.645105	0.331343	0.733849
0	H	0.34181	0.852762	0.19697
0	H	0.705604	0.416711	0.716167
0	H	0.281203	0.767393	0.214412
0	H	0.721345	0.36026	0.76628
0	H	0.265563	0.824262	0.164402
0	C	0.808703	0.219301	0.730091
0	C	0.178117	0.964864	0.200789
0	H	0.739528	0.196608	0.726789
0	H	0.247191	0.987624	0.204156
0	H	0.810419	0.212756	0.764922
0	H	0.176527	0.971475	0.165945
0	H	0.873649	0.179877	0.714082
0	H	0.113043	0.00418769	0.216795
0	C	0.80703	0.310412	0.660404
0	C	0.180049	0.873566	0.270403
0	H	0.737289	0.290053	0.656152
0	H	0.249558	0.894283	0.274649
0	H	0.872566	0.272918	0.643256
0	H	0.114251	0.910686	0.287653
0	H	0.808358	0.37066	0.643942
0	H	0.179312	0.813208	0.286755
0	C	0.166837	0.26484	0.746275
0	C	0.820124	0.919257	0.184504
0	H	0.189677	0.285704	0.773927
0	H	0.797302	0.898346	0.156864
0	H	0.146731	0.204881	0.759466
0	H	0.840261	0.979198	0.17128
0	C	0.254176	0.260737	0.707364
0	C	0.732752	0.923435	0.2234
0	C	0.340636	0.298856	0.7042
0	C	0.646269	0.885353	0.226562
0	C	0.418167	0.302111	0.666515
0	C	0.568697	0.882161	0.264235
0	C	0.408131	0.265189	0.631343
0	C	0.578743	0.919088	0.299407
0	H	0.467197	0.268846	0.601729
0	H	0.519645	0.915464	0.329011
0	C	0.323052	0.227109	0.63325
0	C	0.66384	0.957158	0.297496
0	C	0.247608	0.224109	0.671766
0	C	0.739299	0.96011	0.258984
0	H	0.180233	0.19546	0.673567
0	H	0.806678	0.988765	0.257177
0	C	0.306969	0.19088	0.59427
0	C	0.679921	0.993438	0.336464
0	C	0.200961	0.226907	0.584056
0	C	0.785915	0.957395	0.346687
0	H	0.196704	0.291206	0.574559
0	H	0.790146	0.8931	0.356194
0	H	0.138567	0.217642	0.612249
0	H	0.848297	0.966631	0.318484
0	H	0.184067	0.200919	0.557118
0	H	0.802832	0.9834	0.373616
0	C	0.389328	0.207062	0.552976
0	C	0.597542	0.977307	0.377756
0	H	0.392583	0.270425	0.544026
0	H	0.594418	0.913941	0.386772
0	H	0.373245	0.184452	0.524923
0	H	0.61352	9.43275e-05	0.405776
0	H	0.465758	0.178275	0.557631
0	H	0.521082	0.00595154	0.373065
0	C	0.311114	0.10093	0.606627
0	C	0.675799	0.0833758	0.324068
0	H	0.30046	0.0721853	0.579721
0	H	0.686901	0.112129	0.350891
0	H	0.252019	0.0858854	0.635059
0	H	0.734598	0.0983817	0.29551
0	H	0.385893	0.0745224	0.614463
0	H	0.60086	0.109805	0.316409
0	C	0.50613	0.348101	0.663069
0	C	0.480683	0.836243	0.267664
0	H	0.49545	0.377591	0.693228
0	H	0.491305	0.806823	0.237486
0	H	0.57978	0.307757	0.661458
0	H	0.407046	0.876614	0.269304
0	C	0.509311	0.409995	0.624063
0	C	0.477467	0.77427	0.306634
0	C	0.441533	0.481829	0.627043
0	C	0.545271	0.702452	0.303643
0	C	0.428144	0.533871	0.5893
0	C	0.558533	0.65032	0.34137
0	C	0.491254	0.517464	0.549208
0	C	0.495284	0.666647	0.381449
0	H	0.480622	0.558304	0.520221
0	H	0.505838	0.625741	0.410421
0	C	0.565859	0.450959	0.546184
0	C	0.420609	0.733108	0.384472
0	C	0.572571	0.396944	0.583916
0	C	0.414019	0.7872	0.346757
0	H	0.627744	0.343281	0.581752
0	H	0.358763	0.840818	0.348919
0	C	0.639832	0.43396	0.503461
0	C	0.34639	0.749955	0.427159
0	C	0.750789	0.431424	0.509836
0	C	0.235566	0.75241	0.420642
0	H	0.759244	0.484264	0.523232
0	H	0.227255	0.699455	0.40732
0	H	0.805888	0.428056	0.478883
0	H	0.180242	0.755956	0.451524
0	H	0.773976	0.380055	0.532422
0	H	0.212567	0.803642	0.397934
0	C	0.625374	0.353674	0.491729
0	C	0.360563	0.83023	0.439007
0	H	0.546736	0.354234	0.487361
0	H	0.439004	0.829651	0.443624
0	H	0.63981	0.305518	0.517346
0	H	0.346546	0.878374	0.413326
0	H	0.677743	0.339198	0.461432
0	H	0.307737	0.844723	0.469193
0	C	0.621801	0.497572	0.46504
0	C	0.364299	0.686258	0.465558
0	H	0.631082	0.556072	0.471584
0	H	0.3554	0.627745	0.4589
0	H	0.544741	0.500745	0.458301
0	H	0.441188	0.683233	0.472451
0	H	0.677073	0.484618	0.435071
0	H	0.308706	0.699021	0.495474
0	C	0.345401	0.603982	0.591636
0	C	0.641236	0.580186	0.339032
0	H	0.359386	0.647335	0.562016
0	H	0.62719	0.536777	0.368622
0	H	0.347404	0.635969	0.619433
0	H	0.639296	0.548267	0.311201
0	C	0.242051	0.576996	0.596858
0	C	0.744573	0.607157	0.333873
0	C	0.173136	0.57424	0.637354
0	C	0.813584	0.609904	0.293401
0	C	0.080648	0.542454	0.644202
0	C	0.906055	0.641695	0.28661
0	C	0.0555835	0.516027	0.608494
0	C	0.930998	0.66813	0.322348
0	H	0.984942	0.489711	0.613892
0	H	0.00162687	0.694453	0.316988
0	C	0.120203	0.52117	0.56727
0	C	0.866259	0.663002	0.363545
0	C	0.213975	0.55059	0.562067
0	C	0.772512	0.633592	0.368692
0	H	0.26691	0.551802	0.530609
0	H	0.719457	0.632406	0.400119
0	C	0.0938246	0.493764	0.527635
0	C	0.892519	0.690422	0.403207
0	C	0.166739	0.417677	0.516989
0	C	0.819673	0.766571	0.413782
0	H	0.148584	0.393069	0.490117
0	H	0.837737	0.791189	0.440672
0	H	0.161789	0.37189	0.545492
0	H	0.824808	0.812313	0.385258
0	H	0.247048	0.428064	0.507721
0	H	0.739328	0.75627	0.422983
0	C	0.109113	0.558679	0.488434
0	C	0.877008	0.625551	0.442418
0	H	0.0625459	0.614718	0.496287
0	H	0.923323	0.56942	0.434576
0	H	0.0870597	0.542518	0.45991
0	H	0.899199	0.641625	0.470934
0	H	0.189237	0.569441	0.478483
0	H	0.796802	0.615005	0.452377
0	C	0.982007	0.476921	0.536197
0	C	0.00437515	0.707145	0.394704
0	H	0.927051	0.528987	0.545177
0	H	0.0592479	0.654958	0.385866
0	H	0.967577	0.428827	0.56267
0	H	0.0190317	0.755061	0.368146
0	H	0.963947	0.459443	0.507141
0	H	0.0223187	0.724801	0.423739
0	C	0.168246	0.6817	0.67783
0	C	0.818703	0.502452	0.252899
0	H	0.083475	0.691539	0.682943
0	H	0.90347	0.492672	0.247811
0	H	0.200105	0.717793	0.647311
0	H	0.786829	0.46632	0.283402
0	C	0.206928	0.693417	0.717877
0	C	0.780146	0.490675	0.212836
0	H	0.203746	0.638362	0.741161
0	H	0.783699	0.545593	0.189459
0	H	0.153287	0.740165	0.734872
0	H	0.833642	0.443706	0.195968
0	C	0.315991	0.715521	0.707036
0	C	0.670922	0.468895	0.223616
0	H	0.373528	0.662191	0.701874
0	H	0.613583	0.522359	0.22869
0	H	0.327691	0.755449	0.675904
0	H	0.658937	0.429067	0.254775
0	C	0.336925	0.756129	0.743169
0	C	0.649933	0.428277	0.187502
0	H	0.30909	0.72733	0.776229
0	H	0.677895	0.456972	0.154431
0	H	0.418542	0.763843	0.738919
0	H	0.568274	0.420695	0.191733
0	C	0.389609	0.301503	0.773122
0	C	0.597245	0.882698	0.157657
0	H	0.470836	0.281289	0.759661
0	H	0.516033	0.902931	0.171129
0	H	0.349193	0.250277	0.787671
0	H	0.637672	0.933904	0.143082
0	C	0.375812	0.36295	0.804603
0	C	0.610964	0.821219	0.126206
0	H	0.29255	0.382045	0.815732
0	H	0.694207	0.802129	0.115041
0	H	0.406116	0.334699	0.834028
0	H	0.580572	0.849416	0.0967965
0	C	0.429287	0.43494	0.78344
0	C	0.557551	0.749226	0.14742
0	H	0.402747	0.459985	0.752465
0	H	0.583999	0.724327	0.178434
0	H	0.513269	0.417948	0.773438
0	H	0.473542	0.766158	0.157358
0	C	0.407359	0.496864	0.815047
0	C	0.579692	0.687162	0.115894
0	H	0.433457	0.474002	0.845914
0	H	0.554035	0.709946	0.0849275
0	H	0.326031	0.523376	0.821393
0	H	0.660956	0.660478	0.109738
0	C	0.260865	0.883314	0.768957
0	C	0.725903	0.301018	0.161776
0	C	0.199595	0.95564	0.759256
0	C	0.787043	0.228655	0.171544
0	H	0.171198	0.966888	0.728932
0	H	0.815242	0.217393	0.201917
0	C	0.177472	0.0106409	0.788903
0	C	0.809297	0.173644	0.141905
0	H	0.130097	0.067003	0.78195
0	H	0.856541	0.117241	0.148913
0	C	0.215308	0.994609	0.828011
0	C	0.771731	0.189694	0.102733
0	C	0.275129	0.921946	0.837226
0	C	0.712013	0.26237	0.0934547
0	H	0.304263	0.90819	0.867617
0	H	0.683055	0.276127	0.0630249
0	C	0.298787	0.866027	0.80778
0	C	0.68823	0.318312	0.122897
0	H	0.345876	0.810226	0.815291
0	H	0.641187	0.374114	0.115344
0	C	0.473791	0.619119	0.814777
0	C	0.512939	0.565074	0.116096
0	C	0.42297	0.627114	0.857927
0	C	0.563962	0.557003	0.072977
0	H	0.374079	0.58483	0.876613
0	H	0.612963	0.59924	0.0543127
0	C	0.437032	0.690835	0.877211
0	C	0.549964	0.493274	0.0536853
0	H	0.398514	0.697123	0.911013
0	H	0.588641	0.486943	0.0199052
0	C	0.49993	0.746771	0.854045
0	C	0.486918	0.437389	0.0767968
0	C	0.54865	0.738388	0.810322
0	C	0.437934	0.445884	0.12048
0	H	0.596334	0.782415	0.791464
0	H	0.390084	0.401932	0.139304
0	C	0.536197	0.675221	0.790564
0	C	0.450328	0.509062	0.140253
0	H	0.574651	0.667479	0.757023
0	H	0.411665	0.516874	0.173768
0	C	0.1927	0.0534677	0.859682
0	C	0.794414	0.13079	0.071088
0	H	0.219609	0.0325016	0.890653
0	H	0.767665	0.151726	0.0400795
0	C	0.125146	0.174784	0.879783
0	C	0.861812	0.00938333	0.0510853
0	H	0.0840951	0.234287	0.870605
0	H	0.902747	0.949857	0.0603081
0	C	0.518083	0.811968	0.875271
0	C	0.46889	0.372144	0.055586
0	H	0.583147	0.843219	0.858178
0	H	0.404308	0.340493	0.0728391
0	C	0.434171	0.879003	0.975236
0	C	0.55264	0.305286	0.95554
0	H	0.38791	0.831032	0.990811
0	H	0.599085	0.353164	0.939978
0	C	0.150294	0.165781	0.923855
0	C	0.836749	0.0183277	0.0070029
0	C	0.20395	0.221805	0.93335
0	C	0.782685	0.962501	0.997588
0	H	0.231795	0.267413	0.907735
0	H	0.754464	0.917119	0.0232613
0	C	0.22217	0.220288	0.975308
0	C	0.764553	0.963906	0.955625
0	H	0.264034	0.264058	0.982073
0	H	0.722377	0.92029	0.948917
0	C	0.185652	0.161347	0.00788429
0	C	0.801583	0.0225277	0.922957
0	C	0.133121	0.103334	0.998712
0	C	0.854516	0.0803652	0.93205
0	H	0.105867	0.0586909	0.0250292
0	H	0.882152	0.124764	0.905664
0	C	0.116076	0.106083	0.956795
0	C	0.871459	0.0777377	0.973975
0	H	0.074616	0.0621605	0.949368
0	H	0.913202	0.121533	0.981354
0	C	0.441983	0.93366	0.00519093
0	C	0.544901	0.250613	0.925589
0	C	0.384397	0.923384	0.0483972
0	C	0.602727	0.260765	0.882415
0	H	0.335914	0.876421	0.0579991
0	H	0.65135	0.307649	0.872836
0	C	0.388365	0.972117	0.078698
0	C	0.598839	0.212017	0.852112
0	H	0.34402	0.965449	0.111952
0	H	0.643362	0.218593	0.81888
0	C	0.450717	0.0333014	0.0657222
0	C	0.536293	0.150948	0.865035
0	C	0.508456	0.0447133	0.0232313
0	C	0.478273	0.139676	0.907479
0	H	0.556467	0.0915675	0.0131495
0	H	0.430078	0.0929329	0.917521
0	C	0.503241	0.994673	0.993208
0	C	0.483439	0.189726	0.937515
0	H	0.547659	0.00334691	0.959882
0	H	0.438779	0.181158	0.970803
0	C	0.513349	0.138908	0.0913442
0	C	0.473748	0.0453282	0.839391
0	H	0.485443	0.186213	0.0673407
0	H	0.501695	0.998	0.863375
0	H	0.592712	0.113169	0.0784442
0	H	0.394383	0.0710386	0.85231
0	C	0.500171	0.165297	0.136355
0	C	0.486913	0.0190122	0.794367
0	H	0.531163	0.222031	0.132745
0	H	0.456126	0.962201	0.797969
0	H	0.417039	0.177802	0.151036
0	H	0.570036	0.00667516	0.779639
0	C	0.552259	0.103184	0.167531
0	C	0.434581	0.0810598	0.763245
0	H	0.631417	0.0807922	0.151252
0	H	0.355385	0.103281	0.779559
0	H	0.509192	0.0516937	0.175825
0	H	0.477447	0.13266	0.754956
0	C	0.558458	0.134756	0.209198
0	C	0.428429	0.0494967	0.721575
0	H	0.594195	0.0889363	0.231774
0	H	0.39267	0.095294	0.698999
0	H	0.597841	0.187828	0.203082
0	H	0.389083	0.996407	0.727685
0	C	0.235682	0.215113	0.0658913
0	C	0.751284	0.968725	0.865031
0	H	0.185428	0.271033	0.059946
0	H	0.801418	0.912726	0.87094
0	H	0.314895	0.218877	0.0476151
0	H	0.672109	0.965106	0.883389
0	C	0.231289	0.186282	0.114197
0	C	0.75538	0.997521	0.816738
0	H	0.274524	0.125515	0.117445
0	H	0.711958	0.0582246	0.813515
0	H	0.27328	0.222942	0.128295
0	H	0.713418	0.96074	0.802711
0	C	0.121415	0.185716	0.140439
0	C	0.865113	0.998289	0.790376
0	H	0.121219	0.136652	0.167732
0	H	0.864994	0.0473542	0.763091
0	H	0.071336	0.17149	0.119763
0	H	0.915287	0.0126359	0.810976
0	C	0.0760752	0.263158	0.159033
0	C	0.910568	0.920909	0.771739
0	H	0.992924	0.266828	0.172328
0	H	0.993713	0.917317	0.758445
0	H	0.0919955	0.315846	0.135612
0	H	0.894718	0.86816	0.795115
0	C	0.504161	0.295261	0.259198
0	C	0.482632	0.889061	0.671583
0	H	0.568524	0.313922	0.270209
0	H	0.418213	0.870451	0.660591
0	H	0.53959	0.276561	0.226349
0	H	0.447253	0.907795	0.704432
0	C	0.461937	0.228024	0.290247
0	C	0.5249	0.956265	0.640521
0	C	0.436292	0.163293	0.274733
0	C	0.550581	0.0209891	0.656036
0	C	0.385918	0.104753	0.302986
0	C	0.60096	0.0795196	0.627778
0	C	0.36622	0.109805	0.347994
0	C	0.620587	0.0744892	0.582768
0	H	0.326478	0.0646507	0.369849
0	H	0.6603	0.119648	0.5609
0	C	0.39309	0.172226	0.364621
0	C	0.593688	0.0120796	0.566148
0	C	0.440826	0.231025	0.335349
0	C	0.545978	0.953266	0.59542
0	H	0.45966	0.281127	0.347722
0	H	0.52714	0.903168	0.583051
0	C	0.367512	0.180387	0.413562
0	C	0.619153	0.00394383	0.517206
0	C	0.321204	0.108831	0.441208
0	C	0.665565	0.0754493	0.489548
0	H	0.249934	0.100686	0.431998
0	H	0.73681	0.0835762	0.498787
0	H	0.302406	0.11644	0.475965
0	H	0.684433	0.0678013	0.454798
0	H	0.374735	0.0541732	0.437624
0	H	0.612048	0.130122	0.493097
0	C	0.466271	0.188206	0.428805
0	C	0.520289	0.996269	0.502003
0	H	0.525038	0.13734	0.421969
0	H	0.461489	0.0470494	0.508993
0	H	0.451062	0.191574	0.464069
0	H	0.535333	0.993181	0.466717
0	H	0.49921	0.241237	0.412465
0	H	0.487461	0.943135	0.518239
0	C	0.288515	0.254975	0.420686
0	C	0.697992	0.929281	0.510045
0	H	0.219566	0.251722	0.408256
0	H	0.766904	0.932333	0.522553
0	H	0.319413	0.308432	0.40355
0	H	0.666919	0.875834	0.527083
0	H	0.264805	0.262735	0.455332
0	H	0.721798	0.921655	0.475384
0	C	0.348504	0.0412803	0.285187
0	C	0.63843	0.142971	0.645581
0	H	0.371509	0.048368	0.24869
0	H	0.615425	0.135885	0.682078
0	H	0.385917	0.982076	0.296532
0	H	0.601047	0.202182	0.634232
0	C	0.233456	0.0481828	0.298354
0	C	0.753479	0.136018	0.632412
0	C	0.17117	0.0946275	0.270604
0	C	0.815754	0.0895561	0.660167
0	C	0.0641021	0.111093	0.284769
0	C	0.922798	0.0730027	0.645988
0	C	0.0194104	0.0775165	0.326353
0	C	0.967504	0.106538	0.604392
0	H	0.936408	0.0900254	0.33696
0	H	0.0504929	0.0939641	0.593775
0	C	0.0789541	0.0292706	0.353839
0	C	0.907983	0.154781	0.576901
0	C	0.185814	0.01435	0.339023
0	C	0.801122	0.169756	0.59172
0	H	0.233244	0.976724	0.360022
0	H	0.753702	0.207333	0.570702
0	C	0.0320566	0.992599	0.399499
0	C	0.954848	0.191372	0.531214
0	C	0.0983984	0.00103265	0.432325
0	C	0.888598	0.182655	0.498412
0	H	0.110055	0.0626549	0.430974
0	H	0.877333	0.120944	0.499761
0	H	0.174148	0.965667	0.425835
0	H	0.812669	0.217756	0.50493
0	H	0.0616966	0.981582	0.465836
0	H	0.925144	0.202213	0.464893
0	C	0.922327	0.032855	0.415924
0	C	0.0646569	0.15123	0.514829
0	H	0.868708	0.024236	0.395693
0	H	0.118225	0.160099	0.535025
0	H	0.920394	0.0963661	0.415811
0	H	0.0667835	0.0876755	0.515034
0	H	0.891897	0.00832196	0.449411
0	H	0.0950143	0.175647	0.481309
0	C	0.029435	0.904564	0.397495
0	C	0.957227	0.279481	0.533121
0	H	0.992203	0.875796	0.428833
0	H	0.994489	0.308173	0.501766
0	H	0.107197	0.872381	0.388978
0	H	0.879383	0.311578	0.541556
0	H	0.987092	0.896955	0.372768
0	H	0.999416	0.287297	0.557861
0	C	0.999482	0.16743	0.256999
0	C	0.987371	0.0165749	0.673743
0	H	0.917752	0.157722	0.266392
0	H	0.0691295	0.0262004	0.66433
0	H	0.0238194	0.155857	0.222337
0	H	0.963108	0.0281455	0.708406
0	C	0.0103846	0.250485	0.26248
0	C	0.976329	0.933548	0.668268
0	C	0.0756339	0.296162	0.231359
0	C	0.911072	0.887902	0.699408
0	C	0.0967313	0.368834	0.239555
0	C	0.889967	0.815211	0.691253
0	C	0.0476963	0.39677	0.279363
0	C	0.938939	0.787239	0.65145
0	H	0.0653147	0.452535	0.286023
0	H	0.921354	0.73144	0.644828
0	C	0.981046	0.353466	0.310681
0	C	0.00547242	0.830559	0.62008
0	C	0.962112	0.28094	0.301479
0	C	0.0244669	0.903091	0.629259
0	H	0.911656	0.245911	0.325799
0	H	0.074853	0.938121	0.604901
0	C	0.93152	0.380119	0.355523
0	C	0.054816	0.803921	0.575222
0	C	0.964964	0.315603	0.391038
0	C	0.0213558	0.868486	0.539733
0	H	0.933508	0.332643	0.423777
0	H	0.0527272	0.851474	0.506983
0	H	0.0488777	0.304907	0.386966
0	H	0.937436	0.879223	0.543832
0	H	0.939758	0.259184	0.389672
0	H	0.0466375	0.924878	0.541102
0	C	0.813708	0.39116	0.360386
0	C	0.172646	0.792764	0.570298
0	H	0.785042	0.335421	0.360834
0	H	0.201414	0.848426	0.569946
0	H	0.789436	0.432063	0.333048
0	H	0.196972	0.751651	0.59755
0	H	0.775288	0.415777	0.390671
0	H	0.210926	0.768334	0.539943
0	C	0.964445	0.457991	0.361661
0	C	0.0217177	0.726114	0.569092
0	H	0.0479658	0.453376	0.358355
0	H	0.938153	0.730744	0.572544
0	H	0.929231	0.475705	0.394006
0	H	0.0565981	0.708526	0.53669
0	H	0.940851	0.506733	0.337809
0	H	0.0455445	0.677272	0.592841
0	C	0.175138	0.412873	0.207737
0	C	0.811538	0.771203	0.723076
0	H	0.138487	0.471184	0.194763
0	H	0.848147	0.712863	0.736035
0	H	0.207042	0.379656	0.178949
0	H	0.779679	0.804415	0.751868
0	C	0.260571	0.421278	0.229852
0	C	0.726073	0.762864	0.700967
0	C	0.347361	0.362672	0.229106
0	C	0.639351	0.821533	0.701687
0	C	0.418902	0.36267	0.255673
0	C	0.567814	0.821593	0.675114
0	C	0.405918	0.424939	0.280927
0	C	0.580727	0.759323	0.649869
0	H	0.461534	0.424827	0.301363
0	H	0.525138	0.759497	0.629413
0	C	0.323654	0.485914	0.280526
0	C	0.662865	0.698256	0.650316
0	C	0.252433	0.483599	0.254303
0	C	0.73409	0.700516	0.676552
0	H	0.18782	0.530714	0.253558
0	H	0.798593	0.653316	0.677331
0	C	0.308513	0.554089	0.308101
0	C	0.677922	0.630048	0.622778
0	C	0.345446	0.626728	0.278081
0	C	0.640925	0.557454	0.65282
0	H	0.306687	0.642117	0.250294
0	H	0.679415	0.542233	0.680694
0	H	0.428272	0.616793	0.264685
0	H	0.558027	0.567326	0.666086
0	H	0.332175	0.678499	0.295759
0	H	0.654483	0.505592	0.635202
0	C	0.368929	0.533564	0.345444
0	C	0.617525	0.650545	0.58543
0	H	0.45186	0.522748	0.333011
0	H	0.534604	0.661558	0.597845
0	H	0.345807	0.481444	0.367217
0	H	0.640841	0.702527	0.563577
0	H	0.356202	0.582757	0.36508
0	H	0.630062	0.601256	0.565875
0	C	0.193581	0.572528	0.328789
0	C	0.792841	0.611523	0.602092
0	H	0.180923	0.61604	0.351982
0	H	0.805444	0.567979	0.578921
0	H	0.163003	0.519219	0.346497
0	H	0.823489	0.664789	0.584355
0	H	0.147118	0.59679	0.304138
0	H	0.839291	0.587258	0.626748
0	N	0.194497	0.139604	0.840737
0	N	0.792424	0.0446861	0.090083
0	N	0.0940531	0.110723	0.859886
0	N	0.892958	0.0734447	0.0709692
0	N	0.458573	0.826241	0.912608
0	N	0.527914	0.358271	0.018087
0	N	0.478585	0.885517	0.933727
0	N	0.507981	0.298898	0.997021
0	O	0.149725	0.439349	0.733305
0	O	0.837176	0.744777	0.197535
0	H	0.214841	0.403471	0.737877
0	H	0.772051	0.780639	0.192967
0	O	0.395392	0.497172	0.668456
0	O	0.591562	0.687234	0.262226
0	H	0.329299	0.535429	0.669876
0	H	0.657512	0.648825	0.260825
0	O	0.202265	0.59808	0.672735
0	O	0.784562	0.586053	0.258002
0	O	0.342382	0.343891	0.737164
0	O	0.644526	0.840319	0.193602
0	O	0.278396	0.835155	0.736838
0	O	0.708219	0.349172	0.193905
0	O	0.468254	0.559101	0.792045
0	O	0.518446	0.625099	0.138837
0	O	0.196181	0.152589	0.0503985
0	O	0.791232	0.0311299	0.880427
0	O	0.446736	0.0770227	0.0987389
0	O	0.540362	0.107211	0.832017
0	O	0.1326	0.265616	0.193551
0	O	0.854092	0.918513	0.737197
0	O	0.451355	0.159474	0.229805
0	O	0.535534	0.0248062	0.700964
0	O	0.359256	0.309594	0.19965
0	O	0.627542	0.87464	0.731125
0	H	0.394233	0.255115	0.210072
0	H	0.592581	0.929115	0.720692
0	O	0.221405	0.118181	0.22935
0	O	0.765517	0.0660414	0.701427
0	H	0.188843	0.171068	0.216008
0	H	0.797915	0.0130486	0.714729
