#******************************************
#
# CIF file created by Zeo++
# Zeo++ is an open source package to
# analyze microporous materials
#
#*******************************************

_cell_length_a		13.6231(0)
_cell_length_b		5.17823(0)
_cell_length_c		13.9392(0)
_cell_angle_alpha		87.3023(0)
_cell_angle_beta		102.523(0)
_cell_angle_gamma		89.8216(0)

_symmetry_space_group_name_H-M		'P1'
_symmetry_Int_Tables_number		1
_symmetry_cell_setting		Triclinic

loop_
_symmetry_equiv_pos_as_xyz
'+x,+y,+z'

loop_
_atom_site_label
_atom_site_type_symbol
_atom_site_fract_x
_atom_site_fract_y
_atom_site_fract_z
0	C	0.653681	0.345378	0.448724
0	C	0.666384	0.384251	0.343629
0	H	0.725364	0.240646	0.334775
0	C	0.698609	0.664247	0.319173
0	H	0.703465	0.799997	0.379012
0	C	0.792647	0.668889	0.273855
0	H	0.856384	0.562457	0.323002
0	H	0.817492	0.872146	0.265457
0	C	0.766828	0.558073	0.174098
0	C	0.837527	0.393715	0.129999
0	H	0.890696	0.512667	0.0973949
0	C	0.769269	0.220374	0.0569332
0	H	0.781711	0.256333	0.981837
0	H	0.790605	0.0145403	0.0776476
0	C	0.657656	0.272419	0.0593646
0	H	0.61109	0.321465	0.984908
0	H	0.623445	0.0991	0.088109
0	C	0.658716	0.492332	0.126641
0	C	0.578144	0.553168	0.182787
0	H	0.505905	0.622105	0.135502
0	C	0.571327	0.334437	0.261189
0	H	0.578194	0.143881	0.229615
0	C	0.471523	0.345139	0.295959
0	H	0.463997	0.546236	0.322526
0	C	0.477017	0.149544	0.383202
0	H	0.403636	0.145821	0.406164
0	H	0.49012	0.948574	0.361786
0	C	0.5598	0.217917	0.468572
0	H	0.562002	0.109513	0.538219
0	C	0.750113	0.326432	0.526103
0	H	0.740495	0.415743	0.593594
0	H	0.812675	0.426147	0.502058
0	H	0.773617	0.125171	0.545664
0	C	0.993158	0.259663	0.247897
0	C	0.0318935	0.0296472	0.31212
0	H	0.974045	0.942578	0.347217
0	H	0.0985565	0.0722608	0.369652
0	H	0.0530907	0.87112	0.268421
0	C	0.379508	0.297404	0.211193
0	H	0.387697	0.424752	0.145997
0	C	0.3736	0.0163496	0.180153
0	H	0.326516	0.00278276	0.106242
0	H	0.341868	0.885954	0.229842
0	H	0.448874	0.939447	0.179604
0	C	0.281978	0.375486	0.24076
0	H	0.215511	0.337898	0.183418
0	H	0.280423	0.582762	0.255023
0	H	0.272922	0.268583	0.30823
0	O	0.575593	0.498629	0.47971
0	O	0.615453	0.767461	0.242971
0	O	0.707169	0.723242	0.0930395
0	O	0.893777	0.214979	0.206343
0	O	0.0351227	0.455989	0.229087
0	C	0.33343	0.592238	0.881761
0	C	0.323269	0.570226	0.771819
0	H	0.266821	0.720899	0.73457
0	C	0.289086	0.295421	0.738369
0	H	0.277351	0.157359	0.797755
0	C	0.199613	0.303498	0.648038
0	H	0.136719	0.421105	0.661624
0	H	0.171048	0.104492	0.634114
0	C	0.234249	0.407001	0.55865
0	C	0.170972	0.57896	0.475917
0	H	0.118493	0.469874	0.420465
0	C	0.24615	0.74533	0.432289
0	H	0.237419	0.712751	0.352811
0	H	0.229048	0.953806	0.437877
0	C	0.3547	0.675988	0.488564
0	H	0.402536	0.614922	0.438078
0	H	0.392245	0.844839	0.525955
0	C	0.344883	0.461142	0.562519
0	C	0.418288	0.398805	0.659577
0	H	0.49227	0.322749	0.651777
0	C	0.420893	0.61997	0.731558
0	H	0.414275	0.810076	0.689772
0	C	0.518689	0.6125	0.811904
0	H	0.526728	0.409015	0.846919
0	C	0.508776	0.800684	0.891215
0	H	0.581149	0.808838	0.946452
0	H	0.492987	0.00326213	0.85915
0	C	0.425591	0.717266	0.941227
0	H	0.42152	0.81412	0.00836581
0	C	0.235993	0.596151	0.916342
0	H	0.249596	0.550586	0.99633
0	H	0.183191	0.451272	0.881554
0	H	0.198161	0.784945	0.90178
0	C	0.0140756	0.718325	0.519416
0	C	0.975893	0.933958	0.568213
0	H	0.032035	0.996472	0.632068
0	H	0.906092	0.883878	0.591898
0	H	0.959878	0.111238	0.518021
0	C	0.61264	0.668874	0.768303
0	H	0.605625	0.554774	0.700704
0	C	0.622502	0.955346	0.738912
0	H	0.673412	0.979315	0.688319
0	H	0.652049	0.0717193	0.802757
0	H	0.549093	0.0412774	0.702373
0	C	0.708445	0.576675	0.841826
0	H	0.776002	0.62857	0.815393
0	H	0.709364	0.365521	0.855313
0	H	0.714384	0.663727	0.913547
0	O	0.411525	0.43423	0.948912
0	O	0.374867	0.186865	0.707649
0	O	0.295824	0.231058	0.51568
0	O	0.113525	0.761534	0.520319
0	O	0.969632	0.532967	0.481466
