#******************************************
#
# CIF file created by Zeo++
# Zeo++ is an open source package to
# analyze microporous materials
#
#*******************************************

_cell_length_a		12.3296(0)
_cell_length_b		37.7993(0)
_cell_length_c		9.15057(0)
_cell_angle_alpha		90(0)
_cell_angle_beta		90(0)
_cell_angle_gamma		90(0)

_symmetry_space_group_name_H-M		'P1'
_symmetry_Int_Tables_number		1
_symmetry_cell_setting		Monoclinic

loop_
_symmetry_equiv_pos_as_xyz
'+x,+y,+z'

loop_
_atom_site_label
_atom_site_type_symbol
_atom_site_fract_x
_atom_site_fract_y
_atom_site_fract_z
0	O	0.356925	0.61089	0.944202
0	O	0.659895	0.395349	0.944189
0	O	0.163025	0.108628	0.0700654
0	O	0.853965	0.897578	0.0705267
0	O	0.0830044	0.608755	0.589289
0	O	0.934017	0.397385	0.589194
0	O	0.43408	0.107804	0.431122
0	O	0.582437	0.898493	0.43102
0	O	0.84836	0.508686	0.790295
0	O	0.168662	0.497452	0.79023
0	O	0.669617	0.00799558	0.226422
0	O	0.34731	0.998362	0.226097
0	O	0.0942099	0.645357	0.946852
0	O	0.922667	0.360939	0.946984
0	O	0.422658	0.143078	0.0657572
0	O	0.593993	0.863095	0.0655518
0	O	0.379985	0.69679	0.220102
0	O	0.637115	0.309481	0.220522
0	O	0.138945	0.194959	0.790879
0	O	0.878268	0.811432	0.791083
0	O	0.391422	0.808418	0.740488
0	O	0.626042	0.197824	0.740188
0	O	0.127061	0.306325	0.272162
0	O	0.8898	0.699835	0.271944
0	O	0.458632	0.816138	0.467761
0	O	0.559008	0.190152	0.46717
0	O	0.0589319	0.313905	0.544434
0	O	0.958244	0.692176	0.543974
0	O	0.566673	0.62033	0.289688
0	O	0.4501	0.385886	0.28995
0	O	0.952698	0.117502	0.72327
0	O	0.0644332	0.888955	0.7235
0	N	0.274539	0.617069	0.722461
0	N	0.742451	0.38907	0.722628
0	N	0.24343	0.115931	0.292815
0	N	0.773186	0.890279	0.293001
0	N	0.0420525	0.556585	0.704899
0	N	0.974968	0.449532	0.705002
0	N	0.476113	0.0559687	0.313562
0	N	0.540743	0.950368	0.313542
0	N	0.80065	0.563471	0.869784
0	N	0.21634	0.442681	0.869879
0	N	0.715367	0.0627239	0.145474
0	N	0.301614	0.943617	0.145228
0	N	0.981361	0.587141	0.0635995
0	N	0.0356461	0.419131	0.0638774
0	N	0.536313	0.0850938	0.947944
0	N	0.480634	0.921139	0.947761
0	N	0.162289	0.664323	0.162655
0	N	0.854704	0.341947	0.162838
0	N	0.356304	0.162365	0.849468
0	N	0.660859	0.843889	0.849401
0	N	0.399168	0.682517	0.98077
0	N	0.617737	0.32371	0.98117
0	N	0.118902	0.180211	0.0295277
0	N	0.898016	0.826001	0.0299545
0	C	0.35549	0.670623	0.837726
0	C	0.661272	0.335578	0.838016
0	C	0.161767	0.1687	0.1735
0	C	0.854939	0.837493	0.173841
0	C	0.328943	0.630302	0.844111
0	C	0.687906	0.375896	0.844271
0	C	0.189687	0.128472	0.169331
0	C	0.827097	0.877732	0.169637
0	C	0.22966	0.580581	0.721998
0	C	0.787363	0.425557	0.72199
0	C	0.287937	0.079435	0.297954
0	C	0.728768	0.926791	0.297981
0	C	0.294165	0.556059	0.622002
0	C	0.722871	0.450048	0.621838
0	C	0.223351	0.0557666	0.401443
0	C	0.793372	0.950463	0.401454
0	C	0.112323	0.583413	0.663546
0	C	0.904694	0.42271	0.663564
0	C	0.405353	0.0825369	0.356028
0	C	0.611326	0.923749	0.355972
0	C	0.927679	0.557474	0.654872
0	C	0.0893321	0.44865	0.654915
0	C	0.590649	0.056804	0.362684
0	C	0.426185	0.949571	0.36255
0	C	0.909014	0.537168	0.513098
0	C	0.107924	0.468942	0.513086
0	C	0.610546	0.0365011	0.504113
0	C	0.406263	0.969903	0.503903
0	C	0.858708	0.541102	0.779016
0	C	0.158299	0.465035	0.779025
0	C	0.658765	0.0404045	0.237823
0	C	0.358145	0.965955	0.237588
0	C	0.730936	0.547078	0.983781
0	C	0.285891	0.45911	0.983982
0	C	0.784508	0.0462853	0.0309504
0	C	0.232398	0.960024	0.0307203
0	C	0.829359	0.601587	0.890181
0	C	0.187549	0.404577	0.89045
0	C	0.685328	0.100698	0.124384
0	C	0.331621	0.905636	0.124334
0	C	0.880005	0.608274	0.0426397
0	C	0.136906	0.397945	0.0429468
0	C	0.636048	0.106946	0.970863
0	C	0.38082	0.899336	0.970802
0	C	0.0638084	0.605703	0.153219
0	C	0.953051	0.400596	0.153339
0	C	0.45291	0.103455	0.859184
0	C	0.563893	0.90273	0.858939
0	C	0.161276	0.581174	0.176461
0	C	0.855537	0.425124	0.176233
0	C	0.355301	0.0789076	0.837756
0	C	0.661514	0.927256	0.837135
0	C	0.105574	0.639834	0.0789787
0	C	0.911352	0.366452	0.0791293
0	C	0.41169	0.137645	0.933471
0	C	0.60514	0.868554	0.933304
0	C	0.163242	0.66378	0.324586
0	C	0.853944	0.34244	0.324766
0	C	0.356313	0.161982	0.687532
0	C	0.660905	0.844288	0.68747
0	C	0.210628	0.695543	0.0885898
0	C	0.806374	0.31073	0.0887663
0	C	0.307803	0.193545	0.923562
0	C	0.709277	0.812695	0.92351
0	C	0.172831	0.730796	0.158034
0	C	0.844224	0.275472	0.158102
0	C	0.346036	0.228812	0.854744
0	C	0.671155	0.777439	0.854532
0	C	0.212717	0.760701	0.0648873
0	C	0.804472	0.245573	0.0648381
0	C	0.306534	0.25867	0.948417
0	C	0.710578	0.747559	0.948142
0	C	0.308309	0.778631	0.103275
0	C	0.708955	0.227589	0.103125
0	C	0.211892	0.277045	0.909416
0	C	0.80526	0.729196	0.909217
0	C	0.364599	0.798233	0.998449
0	C	0.652767	0.207985	0.998221
0	C	0.155472	0.296605	0.014257
0	C	0.86158	0.709604	0.0140494
0	C	0.321263	0.799244	0.857274
0	C	0.696118	0.207025	0.857042
0	C	0.197785	0.297133	0.156023
0	C	0.819151	0.709044	0.155748
0	C	0.216215	0.787395	0.824447
0	C	0.801096	0.218947	0.824249
0	C	0.302166	0.284814	0.189859
0	C	0.714713	0.721335	0.189439
0	C	0.161709	0.76789	0.930577
0	C	0.855513	0.238446	0.930492
0	C	0.35678	0.265354	0.0837171
0	C	0.660173	0.740815	0.0832817
0	C	0.419304	0.777466	0.663111
0	C	0.597926	0.228771	0.662935
0	C	0.0983033	0.275348	0.348776
0	C	0.918534	0.730797	0.348684
0	C	0.453606	0.781677	0.516578
0	C	0.563686	0.22459	0.516376
0	C	0.0639566	0.279462	0.495335
0	C	0.953029	0.726639	0.495162
0	C	0.477601	0.751417	0.43451
0	C	0.539479	0.254862	0.434477
0	C	0.0401902	0.249147	0.577205
0	C	0.976805	0.756931	0.577182
0	C	0.468217	0.717831	0.497141
0	C	0.54864	0.288433	0.497301
0	C	0.0494761	0.215602	0.514128
0	C	0.967353	0.790494	0.514304
0	C	0.437626	0.713686	0.644034
0	C	0.579197	0.292547	0.64423
0	C	0.0792647	0.211586	0.366896
0	C	0.937405	0.794556	0.367153
0	C	0.414698	0.74386	0.726872
0	C	0.602288	0.262361	0.726897
0	C	0.102308	0.24181	0.28438
0	C	0.91438	0.764355	0.284493
0	C	0.523977	0.822804	0.33878
0	C	0.492872	0.183456	0.338952
0	C	0.992553	0.320533	0.672473
0	C	0.0241702	0.685543	0.672439
0	C	0.434759	0.677176	0.709356
0	C	0.581869	0.329031	0.709799
0	C	0.0811814	0.1752	0.300452
0	C	0.935298	0.830974	0.30103
0	C	0.513225	0.672016	0.0122242
0	C	0.503678	0.33418	0.0127224
0	C	0.00519443	0.16955	0.996831
0	C	0.0118173	0.836634	0.997665
0	C	0.335183	0.691248	0.102735
0	C	0.681828	0.315008	0.103069
0	C	0.183332	0.18926	0.908413
0	C	0.833743	0.817023	0.908613
0	C	0.72907	0.625473	0.868692
0	C	0.28777	0.38066	0.86899
0	C	0.784624	0.12491	0.147573
0	C	0.232333	0.881434	0.147716
0	C	0.684904	0.62314	0.71599
0	C	0.331947	0.382994	0.716289
0	C	0.829524	0.121825	0.299681
0	C	0.187457	0.884549	0.299828
0	C	0.73982	0.639545	0.598981
0	C	0.277206	0.366507	0.599345
0	C	0.776612	0.138149	0.418498
0	C	0.240869	0.868487	0.418853
0	C	0.698324	0.638097	0.457968
0	C	0.318685	0.36798	0.458317
0	C	0.819664	0.136103	0.558575
0	C	0.197847	0.870547	0.558941
0	C	0.599725	0.620056	0.433763
0	C	0.417076	0.386135	0.434036
0	C	0.917631	0.117494	0.580032
0	C	0.0993601	0.888876	0.580188
0	C	0.544459	0.603365	0.548044
0	C	0.472177	0.402905	0.548287
0	C	0.97035	0.100618	0.464054
0	C	0.046075	0.90546	0.463967
0	C	0.588271	0.604876	0.688969
0	C	0.428391	0.401364	0.689208
0	C	0.925133	0.10279	0.324131
0	C	0.0912958	0.903304	0.324041
0	C	0.455902	0.609605	0.259333
0	C	0.560755	0.396729	0.259509
0	C	0.0631364	0.105988	0.750758
0	C	0.953316	0.899798	0.750723
0	H	0.23901	0.633763	0.647937
0	H	0.777952	0.372345	0.648192
0	H	0.278089	0.133034	0.366479
0	H	0.738297	0.87318	0.366488
0	H	0.073436	0.532147	0.738826
0	H	0.943573	0.473965	0.738939
0	H	0.444779	0.031675	0.278168
0	H	0.572198	0.974651	0.278223
0	H	0.0141962	0.580189	0.964186
0	H	0.00289942	0.426114	0.964438
0	H	0.503559	0.077553	0.0467539
0	H	0.513463	0.928683	0.0465206
0	H	0.277419	0.685385	0.817377
0	H	0.739278	0.320788	0.817544
0	H	0.239113	0.183793	0.194512
0	H	0.777536	0.822412	0.194599
0	H	0.23055	0.569678	0.836946
0	H	0.786448	0.436491	0.836899
0	H	0.28658	0.0676382	0.184512
0	H	0.730239	0.938565	0.184491
0	H	0.270354	0.528258	0.641498
0	H	0.746561	0.477857	0.64137
0	H	0.243315	0.0277154	0.380617
0	H	0.773532	0.978518	0.380451
0	H	0.282383	0.561893	0.505898
0	H	0.734813	0.444213	0.505763
0	H	0.239122	0.0614166	0.516873
0	H	0.777481	0.944858	0.51689
0	H	0.381566	0.557839	0.645232
0	H	0.635445	0.448226	0.644862
0	H	0.135425	0.0587418	0.383274
0	H	0.881305	0.947445	0.383415
0	H	0.903972	0.586135	0.636037
0	H	0.113045	0.419987	0.636116
0	H	0.614446	0.0854599	0.381266
0	H	0.402317	0.920926	0.38123
0	H	0.824353	0.53942	0.476997
0	H	0.192558	0.466676	0.476866
0	H	0.695316	0.0391419	0.539287
0	H	0.32137	0.96739	0.53873
0	H	0.959431	0.547859	0.424155
0	H	0.0574397	0.458248	0.424222
0	H	0.560163	0.0469688	0.593472
0	H	0.456307	0.959359	0.593468
0	H	0.927259	0.508864	0.524022
0	H	0.0896941	0.497249	0.52399
0	H	0.593541	0.0081302	0.493343
0	H	0.423688	0.998251	0.49321
0	H	0.656343	0.562748	0.998151
0	H	0.359924	0.443236	0.999763
0	H	0.858247	0.0622522	0.0142301
0	H	0.15863	0.944057	0.0142073
0	H	0.707958	0.519908	0.951052
0	H	0.30986	0.486128	0.950404
0	H	0.808938	0.0193046	0.0645901
0	H	0.208004	0.987016	0.0642516
0	H	0.77376	0.545278	0.0895217
0	H	0.242503	0.461292	0.0891843
0	H	0.740553	0.043982	0.926141
0	H	0.276254	0.962289	0.925818
0	H	0.891019	0.609108	0.804269
0	H	0.125852	0.397049	0.804606
0	H	0.622476	0.108055	0.208903
0	H	0.394506	0.898301	0.208837
0	H	0.823216	0.600394	0.131671
0	H	0.193737	0.405808	0.131963
0	H	0.694305	0.0994392	0.883029
0	H	0.322553	0.906849	0.88299
0	H	0.892889	0.637272	0.0560632
0	H	0.123904	0.368955	0.0564634
0	H	0.621517	0.135842	0.956823
0	H	0.395233	0.87043	0.956866
0	H	0.0253563	0.612383	0.261429
0	H	0.991341	0.393939	0.261676
0	H	0.490527	0.110008	0.750275
0	H	0.526136	0.89614	0.750158
0	H	0.134569	0.553645	0.191408
0	H	0.882213	0.452655	0.191248
0	H	0.381673	0.0512685	0.825428
0	H	0.635121	0.954877	0.824225
0	H	0.217909	0.581436	0.0832327
0	H	0.799059	0.424852	0.0828354
0	H	0.298463	0.0797311	0.930758
0	H	0.7183	0.926536	0.930207
0	H	0.207415	0.58885	0.273817
0	H	0.809203	0.417452	0.273411
0	H	0.309503	0.0861111	0.739544
0	H	0.707343	0.919933	0.739088
0	H	0.0885436	0.67615	0.369416
0	H	0.928323	0.329824	0.36938
0	H	0.430972	0.17461	0.643761
0	H	0.58592	0.831877	0.643603
0	H	0.167162	0.636539	0.368062
0	H	0.850907	0.369669	0.36849
0	H	0.353624	0.134789	0.643234
0	H	0.6644	0.871483	0.643283
0	H	0.234911	0.678256	0.366375
0	H	0.781877	0.328176	0.366555
0	H	0.284539	0.176284	0.645168
0	H	0.732287	0.829778	0.645092
0	H	0.185275	0.695116	0.969839
0	H	0.831652	0.311172	0.969994
0	H	0.332713	0.193043	0.0424513
0	H	0.684214	0.813179	0.0423391
0	H	0.0829943	0.73077	0.167962
0	H	0.934059	0.275522	0.168095
0	H	0.435877	0.228687	0.844784
0	H	0.581317	0.777558	0.844439
0	H	0.203637	0.733062	0.271915
0	H	0.813376	0.273175	0.271951
0	H	0.315238	0.231233	0.740907
0	H	0.702027	0.775039	0.740721
0	H	0.341502	0.77556	0.213314
0	H	0.675743	0.230611	0.213174
0	H	0.179447	0.274364	0.79882
0	H	0.837793	0.731903	0.798677
0	H	0.442567	0.810586	0.0223843
0	H	0.574853	0.195595	0.0220849
0	H	0.0780986	0.309271	0.989797
0	H	0.938958	0.696933	0.989638
0	H	0.181959	0.79177	0.716031
0	H	0.835365	0.214625	0.7158
0	H	0.335771	0.288834	0.298893
0	H	0.680988	0.717273	0.298374
0	H	0.0813069	0.757174	0.907732
0	H	0.935864	0.24921	0.907692
0	H	0.436657	0.254294	0.107204
0	H	0.580221	0.751834	0.106639
0	H	0.50115	0.7535	0.32009
0	H	0.515967	0.252793	0.320032
0	H	0.0169861	0.251149	0.691794
0	H	0.000186296	0.754896	0.691698
0	H	0.483945	0.694679	0.428303
0	H	0.532778	0.311595	0.428581
0	H	0.0343684	0.192388	0.582894
0	H	0.982475	0.813688	0.583197
0	H	0.393805	0.740829	0.842142
0	H	0.623117	0.265369	0.8422
0	H	0.122963	0.23887	0.168995
0	H	0.893611	0.76733	0.169176
0	H	0.604793	0.811409	0.350313
0	H	0.411992	0.194736	0.351567
0	H	0.911768	0.309205	0.659522
0	H	0.104936	0.696923	0.660102
0	H	0.482632	0.813287	0.24087
0	H	0.533433	0.193071	0.240608
0	H	0.0329367	0.310866	0.770877
0	H	0.983359	0.695149	0.770618
0	H	0.52813	0.852059	0.338371
0	H	0.489053	0.154198	0.338388
0	H	0.988584	0.349794	0.673213
0	H	0.0282936	0.656284	0.673033
0	H	0.519419	0.670328	0.742959
0	H	0.497206	0.335806	0.7436
0	H	0.996674	0.168803	0.264811
0	H	0.0198203	0.837476	0.265792
0	H	0.417587	0.657793	0.620327
0	H	0.598801	0.348467	0.620866
0	H	0.0963096	0.1555	0.38895
0	H	0.919777	0.8506	0.389689
0	H	0.525631	0.643382	0.993595
0	H	0.491133	0.362797	0.993886
0	H	0.992989	0.140916	0.0156886
0	H	0.0241835	0.86524	0.0170381
0	H	0.569342	0.687348	0.943085
0	H	0.447553	0.318798	0.943794
0	H	0.948388	0.184884	0.0650004
0	H	0.0684544	0.821198	0.0657178
0	H	0.534044	0.677245	0.128315
0	H	0.482971	0.328995	0.128874
0	H	0.985126	0.174661	0.880381
0	H	0.0320122	0.83162	0.881182
0	H	0.665509	0.618872	0.950463
0	H	0.351341	0.387245	0.950777
0	H	0.847987	0.118954	0.0646872
0	H	0.168942	0.887363	0.0648289
0	H	0.752318	0.653321	0.893124
0	H	0.264454	0.352819	0.893403
0	H	0.760403	0.152792	0.125856
0	H	0.256542	0.853542	0.126134
0	H	0.815709	0.653922	0.6182
0	H	0.201452	0.352057	0.618591
0	H	0.701083	0.152905	0.401516
0	H	0.316717	0.853901	0.402011
0	H	0.740406	0.650744	0.367092
0	H	0.276722	0.355272	0.367492
0	H	0.77917	0.148717	0.650773
0	H	0.238688	0.858126	0.651299
0	H	0.468907	0.589235	0.529608
0	H	0.547575	0.417126	0.529801
0	H	0.0451337	0.0857893	0.479876
0	H	0.970836	0.920053	0.479633
0	H	0.545455	0.591721	0.778217
0	H	0.471063	0.414578	0.77844
0	H	0.965871	0.0895024	0.233482
0	H	0.0501033	0.916375	0.233215
0	H	0.399724	0.628834	0.307121
0	H	0.617121	0.377555	0.307284
0	H	0.119995	0.124249	0.69828
0	H	0.897637	0.880858	0.700041
0	H	0.452394	0.61093	0.138744
0	H	0.564243	0.395401	0.138921
0	H	0.0695273	0.108198	0.870943
0	H	0.947416	0.898114	0.871088
0	H	0.440868	0.582697	0.297241
0	H	0.575543	0.423651	0.297418
0	H	0.0747419	0.0786637	0.715721
0	H	0.939647	0.926855	0.713572
