#******************************************
#
# CIF file created by Zeo++
# Zeo++ is an open source package to
# analyze microporous materials
#
#*******************************************

_cell_length_a		21.2589(0)
_cell_length_b		21.5338(0)
_cell_length_c		14.3382(0)
_cell_angle_alpha		90(0)
_cell_angle_beta		90(0)
_cell_angle_gamma		90(0)

_symmetry_space_group_name_H-M		'P1'
_symmetry_Int_Tables_number		1
_symmetry_cell_setting		Monoclinic

loop_
_symmetry_equiv_pos_as_xyz
'+x,+y,+z'

loop_
_atom_site_label
_atom_site_type_symbol
_atom_site_fract_x
_atom_site_fract_y
_atom_site_fract_z
0	S	0.262953	0.039575	0.444329
0	S	0.249316	0.460371	0.445062
0	S	0.468598	0.255718	0.443651
0	S	0.0435446	0.244193	0.44436
0	S	0.749276	0.960862	0.586026
0	S	0.763447	0.538142	0.586164
0	S	0.544238	0.743744	0.585187
0	S	0.968454	0.755221	0.584898
0	S	0.40441	0.0910407	0.123043
0	S	0.108419	0.408255	0.122955
0	S	0.415289	0.39701	0.124204
0	S	0.0969598	0.103673	0.123304
0	S	0.608255	0.908606	0.90617
0	S	0.903879	0.591135	0.906756
0	S	0.597155	0.602741	0.906537
0	S	0.915561	0.895816	0.906586
0	O	0.204695	0.0239393	0.0418898
0	O	0.307499	0.477438	0.0426107
0	O	0.484423	0.200366	0.0426356
0	O	0.0277649	0.300594	0.0426656
0	O	0.807763	0.975775	0.98814
0	O	0.705017	0.521966	0.988172
0	O	0.527242	0.799181	0.987593
0	O	0.985349	0.699232	0.987561
0	C	0.174224	0.00637527	0.547312
0	C	0.337877	0.494062	0.547966
0	C	0.501742	0.167889	0.546751
0	C	0.0111708	0.332409	0.547216
0	C	0.837977	0.993844	0.482789
0	C	0.674844	0.505012	0.482938
0	C	0.510966	0.831783	0.482677
0	C	0.00121452	0.666873	0.482689
0	C	0.353214	0.0868018	0.0168076
0	C	0.159855	0.412845	0.0169786
0	C	0.419255	0.346279	0.0181099
0	C	0.0926926	0.154486	0.0172955
0	C	0.659323	0.912855	0.0125709
0	C	0.85261	0.586614	0.0129392
0	C	0.593014	0.653543	0.0125625
0	C	0.919895	0.845026	0.0126263
0	O	0.293622	0.0902358	0.390044
0	O	0.218864	0.40944	0.391057
0	O	0.41743	0.286472	0.389839
0	O	0.0944604	0.213066	0.390425
0	O	0.718544	0.91021	0.64026
0	O	0.794072	0.58887	0.640392
0	O	0.595457	0.712876	0.63876
0	O	0.917374	0.786404	0.638385
0	C	0.201748	0.0701604	0.526111
0	C	0.310453	0.430193	0.527229
0	C	0.437378	0.19563	0.52584
0	C	0.0753119	0.304172	0.526269
0	C	0.810293	0.930132	0.504011
0	C	0.7025	0.568735	0.503976
0	C	0.575382	0.804098	0.503407
0	C	0.936945	0.694923	0.503327
0	C	0.348317	0.0291739	0.161448
0	C	0.163898	0.470592	0.161616
0	C	0.47843	0.341981	0.162115
0	C	0.0339442	0.15871	0.161713
0	C	0.664368	0.970503	0.867949
0	C	0.848363	0.528754	0.868418
0	C	0.533865	0.657568	0.868498
0	C	0.978642	0.840857	0.86821
0	C	0.23542	0.0735923	0.995927
0	C	0.27745	0.427448	0.996539
0	C	0.433468	0.23006	0.997301
0	C	0.0783827	0.270726	0.996773
0	C	0.777091	0.925951	0.0337717
0	C	0.735048	0.572148	0.0338511
0	C	0.578275	0.769733	0.0331249
0	C	0.934502	0.728849	0.0333101
0	O	0.215925	0.0885386	0.92087
0	O	0.297169	0.412805	0.921466
0	O	0.41807	0.210506	0.922546
0	O	0.0934818	0.290226	0.921847
0	O	0.796584	0.910805	0.108742
0	O	0.715326	0.587012	0.108822
0	O	0.593543	0.789473	0.10783
0	O	0.919368	0.709223	0.108135
0	C	0.167042	0.973308	0.466853
0	C	0.345214	0.526778	0.467219
0	C	0.535006	0.160511	0.466136
0	C	0.97788	0.339934	0.466656
0	C	0.845329	0.02685	0.563275
0	C	0.667351	0.472171	0.563539
0	C	0.477707	0.83894	0.563342
0	C	0.0344113	0.659573	0.563386
0	C	0.287624	0.0983102	0.057633
0	C	0.225488	0.402051	0.0580886
0	C	0.408312	0.281477	0.0591789
0	C	0.103712	0.219266	0.0583807
0	C	0.724949	0.90134	0.971878
0	C	0.786924	0.597396	0.972017
0	C	0.603719	0.718362	0.971423
0	C	0.90902	0.780198	0.971631
0	O	0.393386	0.151967	0.170163
0	O	0.119689	0.347402	0.170178
0	O	0.35377	0.386144	0.171889
0	O	0.158529	0.114512	0.170847
0	O	0.619349	0.847627	0.859258
0	O	0.892539	0.651978	0.85956
0	O	0.658612	0.613747	0.858769
0	O	0.854013	0.884944	0.859034
0	O	0.054973	0.0458267	0.284737
0	O	0.457389	0.453913	0.285721
0	O	0.461433	0.049758	0.286031
0	O	0.0521213	0.449851	0.286105
0	O	0.957328	0.953754	0.745313
0	O	0.555394	0.545413	0.745448
0	O	0.551278	0.949338	0.744132
0	O	0.960238	0.549975	0.744531
0	C	0.283664	0.0594494	0.149245
0	C	0.228857	0.440914	0.149752
0	C	0.448121	0.277945	0.150386
0	C	0.064208	0.222746	0.149874
0	C	0.729035	0.940296	0.880365
0	C	0.783393	0.558375	0.880517
0	C	0.564024	0.721685	0.880098
0	C	0.948516	0.776764	0.880128
0	O	0.209698	0.970906	0.175985
0	O	0.301775	0.53025	0.176827
0	O	0.538467	0.205673	0.176406
0	O	0.974195	0.295323	0.17686
0	O	0.802897	0.0290331	0.85427
0	O	0.710469	0.468948	0.854123
0	O	0.473708	0.793875	0.853374
0	O	0.0386903	0.704394	0.853158
0	C	0.154224	0.0708517	0.368717
0	C	0.358163	0.428991	0.3699
0	C	0.436069	0.148269	0.368679
0	C	0.0768574	0.351281	0.368968
0	C	0.858002	0.929186	0.661263
0	C	0.654675	0.569896	0.661198
0	C	0.576639	0.851054	0.660849
0	C	0.935376	0.648222	0.660905
0	C	0.364875	0.0182013	0.998721
0	C	0.147552	0.481318	0.998812
0	C	0.488503	0.358534	0.999282
0	C	0.0233919	0.142178	0.998909
0	C	0.647639	0.98145	0.0306457
0	C	0.864923	0.518149	0.0311693
0	C	0.523806	0.641049	0.0313484
0	C	0.989178	0.857472	0.0310205
0	C	0.145926	0.907316	0.443967
0	C	0.366444	0.592648	0.443812
0	C	0.60164	0.139158	0.442983
0	C	0.911435	0.361799	0.443399
0	C	0.866558	0.0928057	0.586174
0	C	0.64604	0.406287	0.586682
0	C	0.411046	0.86016	0.586614
0	C	0.100831	0.637719	0.586844
0	C	0.362589	0.985663	0.0803215
0	C	0.149427	0.513896	0.0803837
0	C	0.521918	0.356433	0.0804805
0	C	0.990228	0.144278	0.0803478
0	C	0.649963	0.0139928	0.94905
0	C	0.862984	0.485509	0.949659
0	C	0.490399	0.643101	0.950142
0	C	0.0223339	0.855402	0.949571
0	O	0.0504284	0.0838418	0.430121
0	O	0.46196	0.416801	0.431623
0	O	0.42249	0.0460949	0.431178
0	O	0.0911287	0.453437	0.431198
0	O	0.961731	0.916039	0.599742
0	O	0.550931	0.582542	0.599533
0	O	0.590001	0.95341	0.598884
0	O	0.921606	0.545844	0.59922
0	C	0.0846025	0.0627553	0.351222
0	C	0.427756	0.437241	0.352343
0	C	0.444107	0.0793986	0.352031
0	C	0.0692698	0.420181	0.352189
0	C	0.927655	0.937052	0.678744
0	C	0.58504	0.561937	0.678744
0	C	0.568525	0.919878	0.677901
0	C	0.943153	0.579393	0.67816
0	C	0.190941	0.0106352	0.383765
0	C	0.321342	0.489204	0.384407
0	C	0.497231	0.184329	0.383208
0	C	0.0154272	0.315699	0.383732
0	C	0.821461	0.98953	0.646399
0	C	0.691241	0.509545	0.646558
0	C	0.515529	0.81495	0.646127
0	C	0.996714	0.683945	0.646068
0	C	0.377162	0.997902	0.898427
0	C	0.135106	0.501581	0.898573
0	C	0.508344	0.371453	0.898892
0	C	0.00326996	0.129055	0.898693
0	C	0.635321	0.00175128	0.130934
0	C	0.877415	0.497933	0.131422
0	C	0.503998	0.627941	0.131691
0	C	0.00926908	0.870658	0.131229
0	O	0.0676895	0.134744	0.564316
0	O	0.444772	0.367232	0.566912
0	O	0.370625	0.0639701	0.564831
0	O	0.143296	0.435451	0.564551
0	O	0.944316	0.865642	0.465196
0	O	0.568289	0.632188	0.46435
0	O	0.642034	0.935982	0.465266
0	O	0.86947	0.563287	0.465678
0	C	0.15861	0.107633	0.461909
0	C	0.353878	0.392647	0.463489
0	C	0.398966	0.153222	0.461929
0	C	0.113989	0.346205	0.462176
0	C	0.853474	0.892525	0.567981
0	C	0.659126	0.606333	0.567712
0	C	0.613739	0.846402	0.567557
0	C	0.898349	0.652906	0.567562
0	C	0.23121	0.0130635	0.131854
0	C	0.280784	0.487911	0.132564
0	C	0.49547	0.226548	0.132521
0	C	0.0169346	0.274302	0.13257
0	C	0.781376	0.986752	0.898128
0	C	0.731557	0.511354	0.89816
0	C	0.516525	0.772998	0.897637
0	C	0.995962	0.725371	0.897519
0	C	0.161251	0.99079	0.649288
0	C	0.350658	0.51012	0.649825
0	C	0.517626	0.154698	0.648583
0	C	0.995432	0.345531	0.649116
0	C	0.850915	0.00939588	0.380785
0	C	0.662037	0.489191	0.381009
0	C	0.495021	0.845085	0.380902
0	C	0.0171445	0.653691	0.380876
0	C	0.0913342	0.112252	0.496576
0	C	0.421119	0.388816	0.498535
0	C	0.393761	0.0869286	0.497027
0	C	0.119762	0.412506	0.497032
0	C	0.920713	0.887904	0.533128
0	C	0.591899	0.610457	0.532653
0	C	0.618847	0.912797	0.53286
0	C	0.892888	0.586484	0.533103
0	C	0.0897541	0.990886	0.664954
0	C	0.422104	0.510056	0.665922
0	C	0.516884	0.0840737	0.663887
0	C	0.996283	0.416116	0.664754
0	C	0.922394	0.00920953	0.364987
0	C	0.590599	0.48931	0.364955
0	C	0.495651	0.91572	0.365773
0	C	0.0161524	0.583103	0.365311
0	C	0.353326	0.871692	0.0317418
0	C	0.158147	0.627836	0.0315696
0	C	0.637073	0.348494	0.0301564
0	C	0.874984	0.152007	0.0306945
0	C	0.659144	0.127963	0.997639
0	C	0.854226	0.371621	0.998657
0	C	0.375313	0.651141	0.000590332
0	C	0.137603	0.847924	0.999196
0	C	0.318239	0.963693	0.862391
0	C	0.193937	0.535898	0.862435
0	C	0.54291	0.313587	0.861622
0	C	0.968536	0.186773	0.861253
0	C	0.694246	0.0359635	0.166969
0	C	0.818544	0.46373	0.167638
0	C	0.469516	0.685772	0.169272
0	C	0.0441623	0.813025	0.168672
0	C	0.191752	0.928158	0.674641
0	C	0.320112	0.572885	0.674296
0	C	0.581388	0.184237	0.67366
0	C	0.931664	0.315942	0.673999
0	C	0.820465	0.0720582	0.355453
0	C	0.69258	0.426469	0.356241
0	C	0.431299	0.815483	0.355774
0	C	0.0810237	0.683125	0.356233
0	C	0.447687	0.912237	0.119953
0	C	0.0635362	0.586595	0.118669
0	C	0.59549	0.44118	0.119176
0	C	0.916816	0.0595638	0.120027
0	C	0.564787	0.087339	0.909489
0	C	0.948882	0.412752	0.911545
0	C	0.416739	0.558371	0.911573
0	C	0.095556	0.940251	0.909804
0	C	0.388296	0.0538625	0.832979
0	C	0.12414	0.445521	0.833272
0	C	0.451152	0.382638	0.834511
0	C	0.0602934	0.117774	0.834004
0	C	0.624193	0.945784	0.196367
0	C	0.888493	0.554024	0.196617
0	C	0.561212	0.616514	0.195938
0	C	0.952215	0.881799	0.19592
0	C	0.376043	0.918176	0.105776
0	C	0.135315	0.581302	0.105447
0	C	0.590289	0.370398	0.104961
0	C	0.921955	0.130314	0.105384
0	C	0.636444	0.0814642	0.923614
0	C	0.877102	0.418087	0.924703
0	C	0.422015	0.62915	0.925729
0	C	0.0905777	0.869493	0.924505
0	C	0.342358	0.900324	0.197613
0	C	0.168349	0.599524	0.197601
0	C	0.609339	0.337231	0.196429
0	C	0.903235	0.163708	0.196824
0	C	0.670074	0.0993496	0.831745
0	C	0.844107	0.3998	0.832551
0	C	0.402954	0.662278	0.834242
0	C	0.10936	0.836107	0.833089
0	C	0.116925	0.905417	0.345271
0	C	0.395547	0.594196	0.345196
0	C	0.603442	0.111111	0.343926
0	C	0.910207	0.390467	0.344718
0	C	0.895686	0.0946072	0.684787
0	C	0.616742	0.404659	0.685168
0	C	0.409212	0.888025	0.68579
0	C	0.102078	0.609502	0.68581
0	C	0.0961848	0.881278	0.510741
0	C	0.416168	0.618906	0.510449
0	C	0.627521	0.089426	0.509182
0	C	0.885599	0.411233	0.510106
0	C	0.916224	0.118808	0.51925
0	C	0.596451	0.380095	0.519798
0	C	0.385078	0.909972	0.520619
0	C	0.126478	0.587914	0.520602
0	C	0.436506	0.957203	0.894049
0	C	0.075674	0.542155	0.894387
0	C	0.549255	0.430267	0.894861
0	C	0.962364	0.0702047	0.895183
0	C	0.575959	0.0424199	0.135278
0	C	0.936776	0.457242	0.135584
0	C	0.462983	0.569189	0.135531
0	C	0.0500236	0.92961	0.134708
0	C	0.190061	0.0394978	0.716083
0	C	0.321664	0.461711	0.716886
0	C	0.468699	0.183404	0.715782
0	C	0.0443118	0.316657	0.716223
0	C	0.822025	0.960706	0.314037
0	C	0.691008	0.537737	0.314126
0	C	0.543954	0.816522	0.313582
0	C	0.96848	0.682672	0.313522
0	C	0.205191	0.865712	0.445766
0	C	0.307045	0.634069	0.445296
0	C	0.644106	0.197431	0.44566
0	C	0.868473	0.303867	0.444901
0	C	0.807328	0.134463	0.584571
0	C	0.705427	0.364845	0.585324
0	C	0.368662	0.801841	0.583696
0	C	0.143917	0.69555	0.584714
0	H	0.365977	0.119461	0.960638
0	H	0.147585	0.380079	0.960718
0	H	0.385858	0.35845	0.962146
0	H	0.125967	0.142336	0.961169
0	H	0.64649	0.880179	0.0686657
0	H	0.864982	0.619427	0.0690899
0	H	0.626455	0.641521	0.0685504
0	H	0.886579	0.85715	0.0687113
0	H	0.220351	0.0971055	0.585036
0	H	0.291807	0.403391	0.58629
0	H	0.410352	0.214245	0.584859
0	H	0.10223	0.285395	0.585273
0	H	0.79151	0.903274	0.445132
0	H	0.721328	0.595545	0.445052
0	H	0.602429	0.785683	0.444276
0	H	0.910001	0.713417	0.444149
0	H	0.357418	0.0109164	0.232091
0	H	0.154414	0.488874	0.232157
0	H	0.497288	0.351146	0.232493
0	H	0.0153593	0.149532	0.23226
0	H	0.655357	0.98874	0.797268
0	H	0.857719	0.51046	0.797849
0	H	0.515038	0.64828	0.798141
0	H	0.997207	0.850045	0.797653
0	H	0.279691	0.148771	0.0718874
0	H	0.233977	0.351672	0.0722671
0	H	0.357313	0.273309	0.0738695
0	H	0.154738	0.22751	0.0728435
0	H	0.732854	0.850889	0.957512
0	H	0.778448	0.647751	0.95765
0	H	0.654705	0.726739	0.956859
0	H	0.858009	0.771824	0.957219
0	H	0.27108	0.0892767	0.211175
0	H	0.241699	0.411227	0.211712
0	H	0.418351	0.265376	0.2127
0	H	0.0942212	0.23521	0.211974
0	H	0.741767	0.910546	0.818423
0	H	0.770402	0.587936	0.818485
0	H	0.593847	0.734248	0.817855
0	H	0.918517	0.764176	0.818096
0	H	0.174652	0.0983412	0.308218
0	H	0.337782	0.401223	0.309665
0	H	0.408253	0.168165	0.30798
0	H	0.104486	0.331124	0.308283
0	H	0.837517	0.901677	0.721688
0	H	0.675165	0.597523	0.721495
0	H	0.60449	0.83105	0.721429
0	H	0.907593	0.668448	0.721378
0	H	0.199316	0.983979	0.318881
0	H	0.312974	0.515632	0.31933
0	H	0.524109	0.192373	0.318153
0	H	0.988402	0.307779	0.318769
0	H	0.813259	0.0161773	0.711344
0	H	0.699419	0.482976	0.711566
0	H	0.488674	0.806688	0.71113
0	H	0.0236531	0.692124	0.711032
0	H	0.176714	0.156011	0.449354
0	H	0.336081	0.344118	0.451463
0	H	0.350142	0.171573	0.449445
0	H	0.162667	0.327533	0.449621
0	H	0.835372	0.844132	0.580419
0	H	0.677043	0.654817	0.579864
0	H	0.662577	0.828076	0.579919
0	H	0.84959	0.671424	0.579857
0	H	0.069961	0.037682	0.657419
0	H	0.441895	0.463219	0.658792
0	H	0.469291	0.0649987	0.656094
0	H	0.0438357	0.435193	0.656364
0	H	0.942148	0.962401	0.372664
0	H	0.570791	0.536118	0.372457
0	H	0.543181	0.934892	0.373872
0	H	0.968552	0.564132	0.373648
0	H	0.0773021	0.974525	0.735565
0	H	0.434334	0.526547	0.736557
0	H	0.533142	0.0715272	0.734557
0	H	0.980461	0.428535	0.735688
0	H	0.934803	0.0254162	0.294274
0	H	0.57835	0.473067	0.294193
0	H	0.479538	0.928304	0.295045
0	H	0.0319866	0.570617	0.294405
0	H	0.0639994	0.960956	0.615673
0	H	0.448016	0.5398	0.616585
0	H	0.546964	0.0584235	0.614599
0	H	0.965869	0.441878	0.616047
0	H	0.948232	0.039204	0.414094
0	H	0.564673	0.459393	0.41405
0	H	0.465383	0.941247	0.414952
0	H	0.0464799	0.557304	0.414085
0	H	0.349522	0.824659	0.0601396
0	H	0.161652	0.674886	0.0599982
0	H	0.684889	0.344911	0.0579472
0	H	0.827299	0.156025	0.0587958
0	H	0.663028	0.174977	0.969197
0	H	0.850764	0.324543	0.97034
0	H	0.327497	0.654873	0.972842
0	H	0.185304	0.844057	0.971096
0	H	0.386408	0.868572	0.972414
0	H	0.125305	0.630821	0.971943
0	H	0.639686	0.381354	0.971012
0	H	0.872044	0.118831	0.971998
0	H	0.62601	0.131135	0.0568947
0	H	0.887013	0.36872	0.0583574
0	H	0.372627	0.618253	0.0596863
0	H	0.140432	0.881091	0.057919
0	H	0.307083	0.884666	0.00355946
0	H	0.204543	0.614996	0.00379628
0	H	0.624005	0.302868	0.00177672
0	H	0.888172	0.197418	0.00164565
0	H	0.705348	0.114951	0.0259347
0	H	0.807796	0.384471	0.026294
0	H	0.388519	0.696717	0.0290301
0	H	0.124553	0.802462	0.0282
0	H	0.301558	0.927817	0.910835
0	H	0.210432	0.571966	0.910693
0	H	0.579867	0.297211	0.909102
0	H	0.931298	0.202885	0.908455
0	H	0.710953	0.0717987	0.118472
0	H	0.802005	0.42763	0.119458
0	H	0.432696	0.702393	0.12175
0	H	0.0812717	0.796874	0.121282
0	H	0.327968	0.940979	0.795128
0	H	0.184171	0.558396	0.794983
0	H	0.56513	0.323513	0.793858
0	H	0.946632	0.176762	0.79329
0	H	0.684514	0.0587209	0.234201
0	H	0.82828	0.441283	0.235142
0	H	0.447126	0.675657	0.236854
0	H	0.0662478	0.823167	0.236456
0	H	0.278998	0.995935	0.851298
0	H	0.233299	0.503754	0.85165
0	H	0.510323	0.274721	0.851114
0	H	0.000918289	0.225835	0.851055
0	H	0.733463	0.00370578	0.178123
0	H	0.779201	0.495917	0.178364
0	H	0.502184	0.72452	0.180237
0	H	0.0118529	0.773947	0.179196
0	H	0.185954	0.917872	0.749257
0	H	0.326028	0.583695	0.748746
0	H	0.592511	0.177369	0.747883
0	H	0.920416	0.322783	0.74823
0	H	0.826307	0.0823547	0.280846
0	H	0.686627	0.415795	0.281755
0	H	0.42018	0.822383	0.281562
0	H	0.0923127	0.676373	0.281994
0	H	0.242249	0.928396	0.659744
0	H	0.269584	0.572477	0.659591
0	H	0.581153	0.234304	0.660456
0	H	0.931971	0.26587	0.660819
0	H	0.769963	0.0718576	0.3703
0	H	0.743106	0.426864	0.370912
0	H	0.431598	0.765406	0.368899
0	H	0.0808666	0.733175	0.36959
0	H	0.170397	0.889243	0.636335
0	H	0.341319	0.61158	0.635322
0	H	0.6204	0.16367	0.633851
0	H	0.892706	0.336489	0.634054
0	H	0.841848	0.110941	0.393812
0	H	0.671396	0.387701	0.395076
0	H	0.392243	0.835967	0.395585
0	H	0.119875	0.662367	0.396164
0	H	0.462678	0.863465	0.119818
0	H	0.0479838	0.635186	0.11737
0	H	0.644676	0.456623	0.11837
0	H	0.867622	0.0441696	0.120328
0	H	0.549729	0.136085	0.909764
0	H	0.964406	0.364156	0.912907
0	H	0.367528	0.543005	0.912177
0	H	0.144708	0.955785	0.909746
0	H	0.462921	0.932768	0.186831
0	H	0.0481845	0.566404	0.185709
0	H	0.574846	0.455938	0.186293
0	H	0.938053	0.0448663	0.186771
0	H	0.549586	0.0668775	0.842549
0	H	0.964266	0.4329	0.844496
0	H	0.43749	0.543555	0.844561
0	H	0.0744396	0.954848	0.842925
0	H	0.47425	0.93528	0.0642284
0	H	0.0375684	0.562767	0.0629811
0	H	0.571466	0.467135	0.0637078
0	H	0.940299	0.0334985	0.0641408
0	H	0.538253	0.0641648	0.96512
0	H	0.974833	0.436596	0.967266
0	H	0.440619	0.532401	0.967178
0	H	0.0718544	0.966288	0.965515
0	H	0.395784	0.0380868	0.760914
0	H	0.116433	0.461208	0.761206
0	H	0.466592	0.390614	0.762312
0	H	0.0446668	0.109616	0.761952
0	H	0.616704	0.961564	0.26843
0	H	0.89646	0.53836	0.268629
0	H	0.545792	0.608406	0.268111
0	H	0.967832	0.890091	0.267944
0	H	0.430102	0.0806486	0.852704
0	H	0.0825151	0.41854	0.853253
0	H	0.423954	0.423645	0.855328
0	H	0.0875544	0.076831	0.854892
0	H	0.582378	0.919009	0.176653
0	H	0.929992	0.581078	0.176322
0	H	0.588303	0.57549	0.174878
0	H	0.92478	0.922613	0.174959
0	H	0.34799	0.085539	0.830632
0	H	0.164585	0.414025	0.830763
0	H	0.419187	0.342768	0.831992
0	H	0.0921911	0.157688	0.83116
0	H	0.664483	0.91409	0.198704
0	H	0.847981	0.58543	0.199383
0	H	0.593273	0.656309	0.198611
0	H	0.920477	0.841767	0.198883
0	H	0.355249	0.85291	0.218566
0	H	0.154452	0.64669	0.218615
0	H	0.657427	0.350283	0.216531
0	H	0.855072	0.151152	0.21702
0	H	0.657068	0.146728	0.810752
0	H	0.857902	0.352577	0.811722
0	H	0.354841	0.649263	0.814223
0	H	0.157475	0.8488	0.812826
0	H	0.29104	0.902034	0.190158
0	H	0.219715	0.598709	0.190595
0	H	0.607882	0.286554	0.188957
0	H	0.905089	0.214363	0.189233
0	H	0.721398	0.0977404	0.839183
0	H	0.792734	0.40074	0.839467
0	H	0.404439	0.71296	0.841642
0	H	0.107671	0.78545	0.840737
0	H	0.355536	0.930641	0.255968
0	H	0.155519	0.568871	0.255737
0	H	0.578973	0.349969	0.255296
0	H	0.933545	0.150744	0.255661
0	H	0.656943	0.0689874	0.773425
0	H	0.85706	0.430335	0.774331
0	H	0.433267	0.649475	0.775344
0	H	0.0789912	0.848943	0.774262
0	H	0.100613	0.858498	0.326692
0	H	0.41194	0.641038	0.326307
0	H	0.650802	0.0946023	0.325309
0	H	0.862909	0.406986	0.32568
0	H	0.912281	0.141448	0.703282
0	H	0.600344	0.357793	0.703906
0	H	0.361847	0.904516	0.704412
0	H	0.149361	0.592973	0.704934
0	H	0.150284	0.919343	0.29041
0	H	0.362257	0.58015	0.290329
0	H	0.589812	0.144529	0.289459
0	H	0.924228	0.357395	0.289974
0	H	0.862292	0.0808887	0.73972
0	H	0.649912	0.418696	0.740206
0	H	0.422791	0.854482	0.740113
0	H	0.0881701	0.642848	0.740237
0	H	0.0757624	0.936013	0.340016
0	H	0.436701	0.563562	0.340286
0	H	0.571995	0.0708484	0.337918
0	H	0.941598	0.43083	0.339742
0	H	0.936676	0.063783	0.689977
0	H	0.575553	0.435262	0.689938
0	H	0.440676	0.928261	0.692024
0	H	0.0706164	0.569221	0.691294
0	H	0.0711281	0.84164	0.480374
0	H	0.441275	0.65842	0.479781
0	H	0.667669	0.0647242	0.478731
0	H	0.84574	0.436374	0.479636
0	H	0.941439	0.158363	0.54959
0	H	0.571444	0.340413	0.550159
0	H	0.344822	0.934475	0.551115
0	H	0.166169	0.562653	0.551346
0	H	0.0596617	0.916065	0.527676
0	H	0.452655	0.584124	0.527658
0	H	0.592027	0.0534673	0.525358
0	H	0.921229	0.446909	0.527075
0	H	0.952638	0.0839518	0.502108
0	H	0.559873	0.414829	0.502775
0	H	0.420486	0.946056	0.504662
0	H	0.0906892	0.552372	0.50379
0	H	0.116585	0.865692	0.577239
0	H	0.395755	0.634738	0.576818
0	H	0.643219	0.109063	0.576093
0	H	0.869552	0.391247	0.57658
0	H	0.895744	0.13448	0.452856
0	H	0.616939	0.364522	0.453342
0	H	0.369486	0.890439	0.453588
0	H	0.142705	0.607574	0.453998
0	H	0.458916	0.958548	0.824909
0	H	0.0519504	0.539251	0.826356
0	H	0.546172	0.453786	0.826925
0	H	0.965955	0.0460438	0.82782
0	H	0.553512	0.0410532	0.204389
0	H	0.960871	0.460561	0.203277
0	H	0.466372	0.5453	0.203138
0	H	0.0464786	0.953712	0.202128
0	H	0.42666	0.907823	0.908442
0	H	0.0858144	0.591848	0.905818
0	H	0.599641	0.420472	0.906189
0	H	0.911902	0.0800966	0.905474
0	H	0.585791	0.0918046	0.120884
0	H	0.926457	0.407498	0.125032
0	H	0.412563	0.579152	0.124905
0	H	0.100488	0.919847	0.12423
0	H	0.47219	0.972342	0.944341
0	H	0.0409061	0.528384	0.947017
0	H	0.535155	0.464467	0.947583
0	H	0.975997	0.0364925	0.948876
0	H	0.540306	0.0272613	0.0849552
0	H	0.971289	0.470534	0.0822975
0	H	0.476691	0.535243	0.0822041
0	H	0.0362125	0.963315	0.0811089
0	H	0.180443	0.0276771	0.789326
0	H	0.331248	0.473787	0.790046
0	H	0.480886	0.173766	0.788889
0	H	0.0321428	0.326149	0.789392
0	H	0.831652	0.97248	0.24078
0	H	0.681478	0.525752	0.24092
0	H	0.531708	0.826197	0.2405
0	H	0.980764	0.67311	0.240414
0	H	0.170077	0.0858967	0.705773
0	H	0.341548	0.415232	0.706916
0	H	0.421533	0.164007	0.705655
0	H	0.0914811	0.336066	0.706287
0	H	0.841953	0.914279	0.324372
0	H	0.671023	0.584164	0.324229
0	H	0.591091	0.835998	0.323679
0	H	0.921227	0.663417	0.323249
0	H	0.241313	0.0425655	0.709338
0	H	0.270423	0.458682	0.709974
0	H	0.465873	0.234012	0.709159
0	H	0.0470629	0.26606	0.709428
0	H	0.770773	0.9577	0.320814
0	H	0.742234	0.540827	0.321114
0	H	0.546878	0.765914	0.320093
0	H	0.965865	0.733279	0.320256
0	H	0.192661	0.817084	0.433424
0	H	0.319294	0.682687	0.432389
0	H	0.693252	0.185048	0.432506
0	H	0.819487	0.316837	0.431619
0	H	0.81989	0.183033	0.597362
0	H	0.693145	0.316228	0.598173
0	H	0.319523	0.814105	0.597156
0	H	0.19284	0.682562	0.598469
0	H	0.229518	0.868257	0.512969
0	H	0.282811	0.631708	0.512608
0	H	0.641924	0.220793	0.513419
0	H	0.870241	0.280035	0.512303
0	H	0.783093	0.132184	0.517277
0	H	0.729721	0.367214	0.51806
0	H	0.37074	0.778718	0.515744
0	H	0.142382	0.718925	0.516941
0	H	0.238965	0.879053	0.391724
0	H	0.273247	0.620286	0.391528
0	H	0.630445	0.231369	0.392527
0	H	0.881956	0.270191	0.391304
0	H	0.773468	0.120952	0.638389
0	H	0.739172	0.378596	0.639184
0	H	0.382476	0.767735	0.6365
0	H	0.130361	0.729604	0.637727
