#******************************************
#
# CIF file created by Zeo++
# Zeo++ is an open source package to
# analyze microporous materials
#
#*******************************************

_cell_length_a		34.5902(0)
_cell_length_b		8.45735(0)
_cell_length_c		26.2542(0)
_cell_angle_alpha		90(0)
_cell_angle_beta		116.454(0)
_cell_angle_gamma		90(0)

_symmetry_space_group_name_H-M		'P1'
_symmetry_Int_Tables_number		1
_symmetry_cell_setting		Monoclinic

loop_
_symmetry_equiv_pos_as_xyz
'+x,+y,+z'

loop_
_atom_site_label
_atom_site_type_symbol
_atom_site_fract_x
_atom_site_fract_y
_atom_site_fract_z
0	C	0.985733	0.58018	0.926902
0	C	0.998382	0.584903	0.573085
0	C	0.00334703	0.409763	0.0793036
0	C	0.988844	0.416013	0.430109
0	C	0.484107	0.0815798	0.925707
0	C	0.501224	0.0808621	0.57534
0	C	0.505359	0.912317	0.0801229
0	C	0.488318	0.912673	0.430526
0	C	0.96398	0.729014	0.910434
0	C	0.0208764	0.731755	0.591554
0	C	0.0253696	0.261424	0.0956987
0	C	0.967246	0.267312	0.412428
0	C	0.461915	0.229667	0.909486
0	C	0.523513	0.228344	0.593185
0	C	0.527629	0.764232	0.0963708
0	C	0.465979	0.765276	0.412638
0	C	0.956392	0.818162	0.950253
0	C	0.030866	0.821126	0.553872
0	C	0.0330755	0.17303	0.0558314
0	C	0.957686	0.177914	0.450502
0	C	0.454058	0.317316	0.949375
0	C	0.533596	0.316274	0.555306
0	C	0.535529	0.676778	0.0564878
0	C	0.455918	0.677237	0.450516
0	H	0.966974	0.773079	0.993519
0	H	0.0220487	0.777098	0.510851
0	H	0.0224544	0.218397	0.0125931
0	H	0.966294	0.223051	0.493334
0	H	0.464751	0.271836	0.99263
0	H	0.524852	0.271211	0.512403
0	H	0.524868	0.72237	0.0132487
0	H	0.464695	0.722205	0.493441
0	C	0.934927	0.962668	0.934228
0	C	0.0523965	0.964974	0.571696
0	C	0.0546839	0.0287525	0.0717708
0	C	0.936778	0.0327485	0.433313
0	C	0.432205	0.461195	0.933558
0	C	0.555171	0.46025	0.57265
0	C	0.557355	0.532829	0.0722695
0	C	0.434334	0.533301	0.433156
0	H	0.928859	0.030032	0.965479
0	H	0.0605294	0.0322598	0.542207
0	H	0.0608282	0.961866	0.0404933
0	H	0.928999	0.965477	0.46313
0	H	0.425921	0.52738	0.964892
0	H	0.563366	0.526397	0.542944
0	H	0.563646	0.466729	0.0409264
0	H	0.42617	0.46706	0.462868
0	C	0.920649	0.0207481	0.878608
0	C	0.0639776	0.0223476	0.626844
0	C	0.0689756	0.970361	0.127342
0	C	0.925293	0.97418	0.37834
0	C	0.41784	0.520437	0.87806
0	C	0.566743	0.519495	0.627576
0	C	0.57166	0.473405	0.127726
0	C	0.422697	0.474245	0.378189
0	C	0.929066	0.93101	0.839384
0	C	0.05351	0.931886	0.664066
0	C	0.0604819	0.0594968	0.166639
0	C	0.935481	0.0643616	0.340797
0	C	0.426314	0.431617	0.838649
0	C	0.556277	0.430108	0.665069
0	C	0.563144	0.562051	0.167133
0	C	0.433096	0.563791	0.34067
0	H	0.918722	0.975588	0.796174
0	H	0.0618887	0.975875	0.706833
0	H	0.0708662	0.0146141	0.209818
0	H	0.927264	0.0193256	0.298199
0	H	0.415671	0.4765	0.795414
0	H	0.564869	0.474948	0.707818
0	H	0.573734	0.516995	0.210338
0	H	0.424432	0.519156	0.297879
0	C	0.950175	0.786015	0.854691
0	C	0.0325921	0.786971	0.647071
0	C	0.0392278	0.20419	0.151416
0	C	0.955848	0.210413	0.357198
0	C	0.447859	0.287394	0.853814
0	C	0.535183	0.285361	0.648438
0	C	0.541603	0.706284	0.151996
0	C	0.454231	0.708471	0.35734
0	H	0.955692	0.715981	0.823634
0	H	0.0253706	0.715936	0.67647
0	H	0.0336182	0.273806	0.182486
0	H	0.962789	0.281196	0.327488
0	H	0.4535	0.218559	0.822608
0	H	0.527945	0.215674	0.678124
0	H	0.535891	0.774942	0.183187
0	H	0.461429	0.778246	0.327638
0	C	0.896592	0.171452	0.860888
0	C	0.0872543	0.174045	0.645865
0	C	0.0930999	0.819819	0.145021
0	C	0.902244	0.821945	0.359677
0	C	0.393769	0.671242	0.860662
0	C	0.589939	0.671593	0.646099
0	C	0.595694	0.322517	0.145086
0	C	0.399506	0.322153	0.359647
0	C	0.898231	0.286046	0.900614
0	C	0.0848199	0.291452	0.606626
0	C	0.0914886	0.705139	0.105348
0	C	0.904685	0.70502	0.39907
0	C	0.395442	0.785594	0.900497
0	C	0.587468	0.788419	0.606639
0	C	0.594016	0.208202	0.105238
0	C	0.401963	0.205289	0.399093
0	H	0.917506	0.26615	0.946089
0	H	0.0653624	0.27312	0.561115
0	H	0.0722332	0.724895	0.0598648
0	H	0.924126	0.723831	0.444558
0	H	0.414725	0.765514	0.945966
0	H	0.568027	0.769535	0.561152
0	H	0.574758	0.228382	0.0597749
0	H	0.421393	0.22418	0.444584
0	C	0.875461	0.426238	0.881475
0	C	0.107002	0.432357	0.626385
0	C	0.114265	0.564973	0.124574
0	C	0.882566	0.563884	0.379505
0	C	0.372689	0.925908	0.881471
0	C	0.609586	0.929612	0.626146
0	C	0.616728	0.067791	0.124249
0	C	0.379855	0.0640987	0.379581
0	H	0.876907	0.51522	0.912503
0	H	0.10502	0.523628	0.595794
0	H	0.112821	0.47584	0.0935948
0	H	0.88459	0.47296	0.410227
0	H	0.374149	0.014583	0.912532
0	H	0.607563	0.0203124	0.595426
0	H	0.615243	0.979128	0.0931749
0	H	0.381873	0.973359	0.410287
0	C	0.850601	0.458315	0.822844
0	C	0.131913	0.46206	0.685167
0	C	0.13912	0.533119	0.183222
0	C	0.857679	0.533493	0.320774
0	C	0.347802	0.958428	0.822875
0	C	0.634498	0.960272	0.684861
0	C	0.641601	0.0351775	0.182838
0	C	0.354949	0.0334816	0.320864
0	C	0.848025	0.344174	0.782389
0	C	0.135028	0.345562	0.725162
0	C	0.141674	0.647452	0.223616
0	C	0.85454	0.649505	0.280613
0	C	0.345214	0.844509	0.782339
0	C	0.637648	0.844322	0.725055
0	C	0.644196	0.149082	0.223389
0	C	0.3518	0.149435	0.280674
0	C	0.871373	0.203016	0.802968
0	C	0.112285	0.203526	0.703962
0	C	0.118325	0.788512	0.202954
0	C	0.87727	0.791651	0.301616
0	C	0.368553	0.703294	0.802775
0	C	0.614935	0.702111	0.704141
0	C	0.620881	0.290333	0.202972
0	C	0.374525	0.291633	0.301602
0	H	0.870914	0.112191	0.773015
0	H	0.113117	0.11058	0.73339
0	H	0.11876	0.879502	0.23285
0	H	0.876463	0.884115	0.272038
0	H	0.368082	0.612786	0.772686
0	H	0.615778	0.609781	0.733808
0	H	0.621342	0.380803	0.233071
0	H	0.373694	0.383925	0.271927
0	C	0.82479	0.368023	0.717852
0	C	0.158186	0.368374	0.789793
0	C	0.164832	0.623976	0.288171
0	C	0.831331	0.626204	0.216012
0	C	0.321971	0.868269	0.71781
0	C	0.660849	0.867512	0.789658
0	C	0.66741	0.125258	0.287914
0	C	0.328581	0.126289	0.216072
0	C	0.824136	0.209664	0.687742
0	C	0.158889	0.209356	0.819497
0	C	0.165451	0.782558	0.318153
0	C	0.830581	0.785037	0.186181
0	C	0.321288	0.709797	0.687692
0	C	0.661628	0.708571	0.819498
0	C	0.668111	0.283744	0.318044
0	C	0.327814	0.285219	0.186237
0	C	0.803323	0.0693781	0.687986
0	C	0.179992	0.0695301	0.819524
0	C	0.186288	0.922763	0.317867
0	C	0.809473	0.92489	0.186109
0	C	0.300485	0.569527	0.687981
0	C	0.682726	0.568727	0.819531
0	C	0.688945	0.423979	0.317786
0	C	0.306719	0.425068	0.186202
0	H	0.784081	0.0599685	0.711234
0	H	0.199623	0.0609458	0.796796
0	H	0.205593	0.931913	0.294698
0	H	0.789864	0.933615	0.208862
0	H	0.281243	0.560047	0.71125
0	H	0.702335	0.559942	0.796757
0	H	0.708218	0.433401	0.294558
0	H	0.287124	0.433897	0.208994
0	C	0.80733	0.939867	0.657242
0	C	0.175797	0.939231	0.849823
0	C	0.182192	0.052549	0.348432
0	C	0.813632	0.0550317	0.155714
0	C	0.304519	0.439789	0.657274
0	C	0.67853	0.438357	0.849878
0	C	0.684875	0.553768	0.348448
0	C	0.310876	0.555361	0.155786
0	H	0.791494	0.828581	0.657544
0	H	0.191894	0.828397	0.849762
0	H	0.19804	0.163784	0.348088
0	H	0.797529	0.165872	0.155738
0	H	0.288695	0.328541	0.657623
0	H	0.694613	0.327534	0.849805
0	H	0.700717	0.664996	0.348116
0	H	0.294776	0.666161	0.155839
0	C	0.83122	0.951842	0.626313
0	C	0.151337	0.949828	0.880005
0	C	0.158186	0.0409504	0.379217
0	C	0.838047	0.0442318	0.125476
0	C	0.328414	0.451699	0.626348
0	C	0.654093	0.449085	0.88009
0	C	0.660912	0.541956	0.379287
0	C	0.335268	0.54455	0.125518
0	H	0.833499	0.850451	0.602087
0	H	0.148798	0.848113	0.903928
0	H	0.15583	0.142566	0.403298
0	H	0.84055	0.145784	0.101462
0	H	0.330699	0.35027	0.602146
0	H	0.651563	0.34745	0.904048
0	H	0.658586	0.643453	0.403437
0	H	0.337752	0.646084	0.101483
0	C	0.852649	0.092497	0.626242
0	C	0.129645	0.089988	0.879737
0	C	0.136745	0.900382	0.379339
0	C	0.85974	0.904019	0.125803
0	C	0.349835	0.592514	0.626242
0	C	0.632414	0.589458	0.879815
0	C	0.639489	0.401157	0.379388
0	C	0.356957	0.404171	0.125822
0	H	0.871768	0.100288	0.602664
0	H	0.1101	0.097196	0.902657
0	H	0.11753	0.892898	0.402792
0	H	0.879242	0.896631	0.102833
0	H	0.368957	0.600235	0.602661
0	H	0.612898	0.596739	0.90278
0	H	0.620326	0.393495	0.402914
0	H	0.376435	0.396818	0.102807
0	C	0.849026	0.22066	0.656972
0	C	0.133523	0.219007	0.849619
0	C	0.140459	0.77193	0.348793
0	C	0.855911	0.775151	0.156016
0	C	0.346199	0.720745	0.656929
0	C	0.636272	0.718392	0.849651
0	C	0.643158	0.27287	0.348752
0	C	0.353139	0.275319	0.156041
0	C	0.867621	0.379739	0.66489
0	C	0.114803	0.377772	0.842018
0	C	0.121853	0.612893	0.340938
0	C	0.874635	0.61637	0.163693
0	C	0.364814	0.879835	0.664845
0	C	0.617537	0.877186	0.841991
0	C	0.624548	0.113788	0.340851
0	C	0.371867	0.116508	0.163707
0	C	0.895027	0.444206	0.644701
0	C	0.0871348	0.440846	0.862037
0	C	0.0943449	0.548778	0.361021
0	C	0.902258	0.553082	0.143645
0	C	0.392252	0.944293	0.644712
0	C	0.589908	0.940477	0.862027
0	C	0.597111	0.0493688	0.360988
0	C	0.399486	0.0531715	0.143668
0	H	0.905555	0.375022	0.618155
0	H	0.0764649	0.370522	0.888169
0	H	0.0837568	0.618225	0.387447
0	H	0.912922	0.623234	0.117462
0	H	0.402775	0.875133	0.618192
0	H	0.579272	0.870377	0.888216
0	H	0.586584	0.11856	0.387491
0	H	0.410132	0.123238	0.117483
0	C	0.909106	0.600839	0.659539
0	C	0.0729432	0.597478	0.847552
0	C	0.0802222	0.392188	0.346209
0	C	0.916403	0.396401	0.15813
0	C	0.406357	0.100777	0.659595
0	C	0.575723	0.0969783	0.847483
0	C	0.583016	0.892879	0.346138
0	C	0.41364	0.896622	0.158182
0	H	0.930532	0.65346	0.643949
0	H	0.0512207	0.648798	0.862899
0	H	0.0587176	0.339828	0.361722
0	H	0.938079	0.344907	0.142737
0	H	0.427822	0.153466	0.644073
0	H	0.554026	0.148551	0.862833
0	H	0.561567	0.840205	0.361685
0	H	0.435326	0.845011	0.142823
0	C	0.895857	0.688469	0.693893
0	C	0.086416	0.686519	0.813744
0	C	0.0934841	0.304298	0.311926
0	C	0.902916	0.307512	0.191954
0	C	0.393098	0.188442	0.693934
0	C	0.589166	0.185867	0.813604
0	C	0.596239	0.805191	0.311769
0	C	0.400159	0.807725	0.192013
0	H	0.906989	0.809803	0.705029
0	H	0.0751716	0.807793	0.802758
0	H	0.0822868	0.183043	0.300772
0	H	0.914094	0.186141	0.202899
0	H	0.404242	0.309837	0.70511
0	H	0.577944	0.307245	0.802584
0	H	0.585089	0.683803	0.300598
0	H	0.411337	0.686283	0.202988
0	C	0.867988	0.623115	0.714357
0	C	0.114646	0.622656	0.793606
0	C	0.121447	0.369314	0.291552
0	C	0.874738	0.371605	0.212141
0	C	0.365197	0.123088	0.714351
0	C	0.617352	0.121759	0.79343
0	C	0.624122	0.870538	0.291316
0	C	0.37198	0.871875	0.212194
0	H	0.858117	0.694107	0.741121
0	H	0.124709	0.695176	0.767399
0	H	0.131308	0.29816	0.264815
0	H	0.86465	0.299179	0.238345
0	H	0.355325	0.194008	0.741144
0	H	0.627387	0.194084	0.767137
0	H	0.63396	0.79963	0.264483
0	H	0.361907	0.79951	0.238438
0	C	0.853785	0.469231	0.699952
0	C	0.128928	0.468661	0.807584
0	C	0.135744	0.52309	0.305999
0	C	0.860523	0.52567	0.198184
0	C	0.350975	0.969376	0.6999
0	C	0.631615	0.967901	0.80746
0	C	0.638376	0.0242171	0.305792
0	C	0.357768	0.0258038	0.198216
0	C	0.778649	0.432525	0.693503
0	C	0.204278	0.433647	0.814402
0	C	0.210977	0.559576	0.312601
0	C	0.785257	0.560882	0.191518
0	C	0.275839	0.93279	0.693496
0	C	0.706915	0.932967	0.814168
0	C	0.713531	0.0606464	0.312228
0	C	0.282505	0.0609471	0.191588
0	C	0.765146	0.556587	0.717562
0	C	0.217328	0.559412	0.790489
0	C	0.224535	0.435542	0.288605
0	C	0.772258	0.435297	0.215565
0	C	0.262335	0.0566431	0.717612
0	C	0.719901	0.0585004	0.790111
0	C	0.727025	0.936779	0.288113
0	C	0.269511	0.935486	0.215665
0	C	0.793716	0.656259	0.764931
0	C	0.188413	0.660061	0.743704
0	C	0.196008	0.335507	0.241331
0	C	0.80123	0.335034	0.262448
0	C	0.290904	0.156306	0.765036
0	C	0.690935	0.158707	0.743154
0	C	0.698447	0.837162	0.240685
0	C	0.298482	0.835152	0.262578
0	H	0.782286	0.778951	0.762304
0	H	0.199596	0.783263	0.746897
0	H	0.207471	0.21282	0.244098
0	H	0.790106	0.21178	0.259371
0	H	0.279418	0.279027	0.76237
0	H	0.702111	0.282	0.746259
0	H	0.709909	0.714402	0.243354
0	H	0.287298	0.711872	0.259439
0	C	0.830479	0.614791	0.809771
0	C	0.151618	0.619109	0.698837
0	C	0.159258	0.376676	0.196417
0	C	0.838029	0.376341	0.30726
0	C	0.327661	0.114803	0.809899
0	C	0.654165	0.117334	0.698296
0	C	0.661707	0.878738	0.195806
0	C	0.335281	0.876427	0.307413
0	H	0.848108	0.704702	0.842272
0	H	0.133651	0.70973	0.66683
0	H	0.141669	0.286597	0.16398
0	H	0.856054	0.285909	0.339321
0	H	0.345233	0.204687	0.842415
0	H	0.636214	0.207688	0.666184
0	H	0.644131	0.788899	0.163282
0	H	0.353254	0.785983	0.339474
0	C	0.720773	0.596721	0.693571
0	C	0.261606	0.600521	0.81413
0	C	0.268941	0.395897	0.312555
0	C	0.728	0.393945	0.19194
0	C	0.217941	0.0966369	0.693639
0	C	0.764175	0.0998711	0.813762
0	C	0.771421	0.896783	0.31208
0	C	0.225236	0.894207	0.19205
0	H	0.710352	0.691052	0.713252
0	H	0.271674	0.69594	0.794472
0	H	0.279407	0.301603	0.292911
0	H	0.717966	0.298619	0.21167
0	H	0.207511	0.190841	0.713393
0	H	0.774199	0.195212	0.79399
0	H	0.78184	0.80251	0.292344
0	H	0.215205	0.798967	0.21185
0	C	0.689969	0.520031	0.646277
0	C	0.292749	0.523456	0.861015
0	C	0.299715	0.473081	0.359745
0	C	0.696829	0.47056	0.144949
0	C	0.187142	0.0199566	0.646316
0	C	0.795348	0.0231714	0.860745
0	C	0.802229	0.973586	0.359365
0	C	0.194067	0.970773	0.145026
0	H	0.655861	0.549926	0.630185
0	H	0.326766	0.554199	0.876626
0	H	0.333847	0.443606	0.375806
0	H	0.66283	0.439591	0.129344
0	H	0.153024	0.0498869	0.630226
0	H	0.829358	0.0542396	0.876358
0	H	0.836349	0.943698	0.375443
0	H	0.160058	0.939726	0.129416
0	C	0.703651	0.40319	0.619458
0	C	0.279566	0.405279	0.887957
0	C	0.285966	0.589797	0.38654
0	C	0.709963	0.588598	0.117905
0	C	0.200859	0.903337	0.619481
0	C	0.7822	0.905147	0.887753
0	C	0.788512	0.0902304	0.386197
0	C	0.207225	0.0886393	0.117973
0	C	0.74768	0.364658	0.642684
0	C	0.235568	0.36548	0.864951
0	C	0.241916	0.627796	0.363377
0	C	0.753949	0.628632	0.140898
0	C	0.244887	0.864882	0.642666
0	C	0.738218	0.865079	0.864776
0	C	0.744484	0.128574	0.363056
0	C	0.251208	0.128733	0.140957
0	H	0.757666	0.279047	0.619627
0	H	0.225877	0.2786	0.887913
0	H	0.231876	0.713276	0.386419
0	H	0.763611	0.715353	0.117854
0	H	0.254884	0.779301	0.619602
0	H	0.728553	0.778221	0.887778
0	H	0.734483	0.214078	0.386141
0	H	0.260876	0.215504	0.117927
0	C	0.636528	0.397881	0.526461
0	C	0.348717	0.397453	0.978854
0	C	0.353064	0.595647	0.479515
0	C	0.64082	0.595978	0.0269614
0	C	0.133781	0.898047	0.526469
0	C	0.851366	0.8975	0.978668
0	C	0.855617	0.0958367	0.479162
0	C	0.138087	0.0959086	0.0270266
0	C	0.636395	0.561687	0.517367
0	C	0.350323	0.561236	0.988754
0	C	0.353213	0.431853	0.488645
0	C	0.639259	0.43217	0.0171329
0	C	0.133717	0.0617282	0.517387
0	C	0.852947	0.0611532	0.988584
0	C	0.855711	0.932178	0.488298
0	C	0.136588	0.932244	0.0171574
0	H	0.664399	0.63375	0.543332
0	H	0.32229	0.635577	0.964872
0	H	0.325219	0.359737	0.462704
0	H	0.667308	0.357938	0.0410655
0	H	0.16169	0.133729	0.543423
0	H	0.824953	0.135507	0.964639
0	H	0.827771	0.860042	0.462264
0	H	0.164625	0.858087	0.041106
0	C	0.600162	0.632804	0.474248
0	C	0.387921	0.629473	0.0301193
0	C	0.389457	0.360811	0.531767
0	C	0.601693	0.363762	0.975779
0	C	0.097564	0.132879	0.474156
0	C	0.890486	0.12936	0.0300836
0	C	0.891854	0.861236	0.531608
0	C	0.0990766	0.863766	0.975715
0	H	0.60042	0.760143	0.467628
0	H	0.388733	0.756808	0.0372865
0	H	0.389217	0.233474	0.5384
0	H	0.600925	0.236414	0.968653
0	H	0.0978492	0.26023	0.467532
0	H	0.89127	0.256707	0.0372855
0	H	0.891613	0.733889	0.53828
0	H	0.0983636	0.736418	0.968551
0	C	0.564191	0.542314	0.439713
0	C	0.423962	0.53633	0.0624275
0	C	0.425419	0.451398	0.566285
0	C	0.565618	0.456709	0.943431
0	C	0.061655	0.0423126	0.439516
0	C	0.926476	0.0361306	0.0624861
0	C	0.927699	0.952072	0.566275
0	C	0.0630115	0.956691	0.943335
0	H	0.535984	0.59793	0.406172
0	H	0.453217	0.589581	0.0948775
0	H	0.453633	0.395831	0.599831
0	H	0.536386	0.403302	0.910998
0	H	0.0335426	0.097794	0.405775
0	H	0.955682	0.0892552	0.0951138
0	H	0.955737	0.896798	0.600187
0	H	0.0338102	0.903339	0.910783
0	C	0.564458	0.378904	0.448467
0	C	0.422225	0.372914	0.0529848
0	C	0.425133	0.614796	0.5575
0	C	0.567299	0.620139	0.95282
0	C	0.0618348	0.879098	0.448335
0	C	0.924769	0.87289	0.0529597
0	C	0.927538	0.115203	0.557313
0	C	0.0646367	0.119933	0.952818
0	H	0.536323	0.307338	0.421792
0	H	0.450301	0.298996	0.0782001
0	H	0.453261	0.686426	0.584161
0	H	0.539195	0.693909	0.92759
0	H	0.033688	0.807663	0.421582
0	H	0.952817	0.798936	0.0782735
0	H	0.955667	0.186767	0.584014
0	H	0.0365246	0.193625	0.927531
0	C	0.600245	0.306072	0.491499
0	C	0.385017	0.302957	0.0114947
0	C	0.389337	0.687539	0.514454
0	C	0.604492	0.690293	0.994283
0	C	0.0975195	0.806201	0.491497
0	C	0.887643	0.802938	0.0113185
0	C	0.891862	0.187863	0.514068
0	C	0.10175	0.19019	0.994388
0	H	0.599871	0.178891	0.498245
0	H	0.384293	0.175693	0.00451902
0	H	0.389697	0.814703	0.50767
0	H	0.605177	0.817577	0.00120943
0	H	0.0970687	0.679153	0.498319
0	H	0.886987	0.675783	0.0042617
0	H	0.892311	0.314883	0.507146
0	H	0.102342	0.317341	0.00141206
0	C	0.685888	0.170657	0.555567
0	C	0.298534	0.172465	0.952086
0	C	0.303669	0.822818	0.450223
0	C	0.690941	0.821185	0.053687
0	C	0.183098	0.670841	0.555579
0	C	0.801229	0.672536	0.951964
0	C	0.806296	0.322963	0.450025
0	C	0.188174	0.321119	0.0537182
0	C	0.689559	0.156587	0.504584
0	C	0.297852	0.156294	0.00492815
0	C	0.300034	0.837322	0.501219
0	C	0.691625	0.83742	0.000848479
0	C	0.186762	0.656695	0.504593
0	C	0.800563	0.65638	0.00481707
0	C	0.802705	0.337379	0.501054
0	C	0.18884	0.337404	0.000871069
0	H	0.683465	0.257651	0.476234
0	H	0.305364	0.256538	0.0339294
0	H	0.306172	0.736458	0.529662
0	H	0.684112	0.737212	0.971834
0	H	0.180664	0.757738	0.476226
0	H	0.808068	0.756659	0.03381
0	H	0.808841	0.236446	0.529478
0	H	0.181315	0.237207	0.971843
0	C	0.701212	0.0111547	0.490329
0	C	0.287356	0.00994598	0.0200834
0	C	0.288343	0.982855	0.515347
0	C	0.702141	0.983787	0.985727
0	C	0.198395	0.511306	0.490324
0	C	0.790121	0.510088	0.0200342
0	C	0.79109	0.482857	0.515281
0	C	0.199331	0.48371	0.985721
0	H	0.703784	0.999814	0.450526
0	H	0.28728	0.99647	0.0613722
0	H	0.285781	0.994516	0.555146
0	H	0.702228	0.99731	0.944444
0	H	0.200943	0.499772	0.450514
0	H	0.790078	0.496492	0.0613362
0	H	0.788579	0.494608	0.555107
0	H	0.199388	0.4974	0.94443
0	C	0.709518	0.881379	0.526647
0	C	0.277253	0.881629	0.982849
0	C	0.279964	0.112318	0.478878
0	C	0.712238	0.112067	0.0229805
0	C	0.206694	0.381409	0.526654
0	C	0.780044	0.381554	0.982823
0	C	0.782742	0.612572	0.478858
0	C	0.209431	0.612142	0.0229829
0	H	0.718906	0.768729	0.515389
0	H	0.268798	0.768318	0.994982
0	H	0.270535	0.225041	0.490031
0	H	0.720716	0.225375	0.0108727
0	H	0.216097	0.268729	0.51542
0	H	0.771605	0.268221	0.99498
0	H	0.773347	0.725315	0.490058
0	H	0.217918	0.725467	0.0108798
0	C	0.705854	0.896547	0.577392
0	C	0.277782	0.898982	0.930173
0	C	0.283577	0.0967297	0.428112
0	C	0.711654	0.094696	0.0756218
0	C	0.202987	0.396563	0.577364
0	C	0.780598	0.398816	0.930165
0	C	0.786367	0.597149	0.4281
0	C	0.20882	0.594801	0.0756036
0	H	0.71221	0.794958	0.605713
0	H	0.269898	0.798589	0.901108
0	H	0.277152	0.198061	0.399667
0	H	0.719506	0.195082	0.104688
0	H	0.209262	0.29491	0.605651
0	H	0.772798	0.298305	0.901151
0	H	0.780044	0.69864	0.399736
0	H	0.216604	0.695261	0.10464
0	C	0.693991	0.0405591	0.592207
0	C	0.288458	0.0438896	0.914443
0	C	0.295466	0.952585	0.413421
0	C	0.700974	0.949762	0.091326
0	C	0.191143	0.540755	0.592177
0	C	0.791225	0.543899	0.914394
0	C	0.798183	0.452844	0.413328
0	C	0.198167	0.449692	0.091318
0	H	0.691113	0.052684	0.631736
0	H	0.288917	0.0577317	0.873426
0	H	0.298281	0.940122	0.373859
0	H	0.700476	0.935883	0.132316
0	H	0.188227	0.552898	0.631697
0	H	0.791711	0.557679	0.873374
0	H	0.801031	0.440468	0.373768
0	H	0.197646	0.435821	0.132314
0	N	0.0035346	0.460177	0.940673
0	N	0.979969	0.46653	0.557885
0	N	0.985298	0.529256	0.0655467
0	N	0.00663049	0.535796	0.444815
0	N	0.502323	0.962495	0.939343
0	N	0.482881	0.962376	0.560536
0	N	0.487038	0.0309816	0.0664263
0	N	0.506718	0.031001	0.445375
0	N	0.672624	0.319132	0.571072
0	N	0.310957	0.321643	0.93604
0	N	0.316969	0.674222	0.434853
0	N	0.678566	0.671933	0.0697407
0	N	0.169847	0.819231	0.571106
0	N	0.813603	0.821662	0.93586
0	N	0.819518	0.174466	0.434534
0	N	0.17583	0.171929	0.0698043
