#******************************************
#
# CIF file created by Zeo++
# Zeo++ is an open source package to
# analyze microporous materials
#
#*******************************************

_cell_length_a		22.7538(0)
_cell_length_b		22.6882(0)
_cell_length_c		12.8424(0)
_cell_angle_alpha		90(0)
_cell_angle_beta		90(0)
_cell_angle_gamma		90(0)

_symmetry_space_group_name_H-M		'P1'
_symmetry_Int_Tables_number		1
_symmetry_cell_setting		Monoclinic

loop_
_symmetry_equiv_pos_as_xyz
'+x,+y,+z'

loop_
_atom_site_label
_atom_site_type_symbol
_atom_site_fract_x
_atom_site_fract_y
_atom_site_fract_z
0	C	0.600231	0.635796	0.87935
0	C	0.904982	0.371055	0.379459
0	C	0.119079	0.852465	0.130648
0	C	0.38388	0.154851	0.630613
0	C	0.403993	0.371335	0.122874
0	C	0.0996579	0.636342	0.622387
0	C	0.885108	0.154839	0.871979
0	C	0.62052	0.852279	0.371897
0	C	0.0989844	0.135167	0.379178
0	C	0.404718	0.872563	0.87872
0	C	0.620851	0.350654	0.629667
0	C	0.884829	0.656463	0.12958
0	C	0.90545	0.872141	0.623334
0	C	0.599674	0.134667	0.123486
0	C	0.383459	0.656562	0.372576
0	C	0.119573	0.350682	0.872939
0	H	0.565402	0.667558	0.895821
0	H	0.939644	0.33914	0.396157
0	H	0.0869934	0.818107	0.147885
0	H	0.415775	0.189385	0.648134
0	H	0.438797	0.339553	0.106378
0	H	0.0651135	0.668358	0.605523
0	H	0.917171	0.18923	0.854804
0	H	0.588647	0.817706	0.354498
0	H	0.0642949	0.166866	0.395769
0	H	0.439659	0.841093	0.894977
0	H	0.589243	0.315737	0.646434
0	H	0.916644	0.691173	0.146152
0	H	0.940185	0.840477	0.606825
0	H	0.564771	0.166168	0.107202
0	H	0.415085	0.691451	0.355751
0	H	0.0877806	0.315933	0.856483
0	C	0.637141	0.642344	0.794642
0	C	0.868075	0.364588	0.294718
0	C	0.112974	0.889012	0.0452216
0	C	0.390312	0.118212	0.545406
0	C	0.367092	0.364795	0.20761
0	C	0.136535	0.642756	0.707181
0	C	0.891243	0.118218	0.957287
0	C	0.614116	0.888928	0.457104
0	C	0.13577	0.141581	0.294339
0	C	0.367943	0.866036	0.793914
0	C	0.614253	0.387622	0.544937
0	C	0.891139	0.619538	0.0447114
0	C	0.86865	0.865706	0.708155
0	C	0.636464	0.141174	0.20829
0	C	0.39008	0.61956	0.457264
0	C	0.113297	0.387614	0.957817
0	H	0.631996	0.679938	0.742352
0	H	0.873139	0.326924	0.242498
0	H	0.0754068	0.883988	0.993149
0	H	0.427996	0.123367	0.493549
0	H	0.372236	0.327185	0.259847
0	H	0.131597	0.680507	0.759245
0	H	0.928831	0.123211	0.00934365
0	H	0.576473	0.883742	0.509042
0	H	0.130415	0.178988	0.241631
0	H	0.37352	0.828782	0.74101
0	H	0.576717	0.382365	0.492777
0	H	0.928622	0.624589	0.992449
0	H	0.874051	0.828326	0.760896
0	H	0.630952	0.178464	0.261134
0	H	0.427673	0.624767	0.509339
0	H	0.0758484	0.382525	0.0101608
0	C	0.682571	0.60117	0.775112
0	C	0.822701	0.405844	0.275038
0	C	0.154534	0.933995	0.0246777
0	C	0.34895	0.0730632	0.524865
0	C	0.321677	0.405967	0.227178
0	C	0.181707	0.601325	0.727135
0	C	0.849702	0.07322	0.977772
0	C	0.655451	0.93413	0.477516
0	C	0.181364	0.100519	0.274973
0	C	0.322108	0.906847	0.774897
0	C	0.65525	0.433247	0.525348
0	C	0.849919	0.574133	0.0250192
0	C	0.822975	0.906695	0.727424
0	C	0.682211	0.100278	0.227383
0	C	0.349051	0.573987	0.476951
0	C	0.154488	0.433062	0.977387
0	H	0.710838	0.607567	0.70771
0	H	0.794418	0.399483	0.207537
0	H	0.148427	0.962034	0.95682
0	H	0.355374	0.0449735	0.457058
0	H	0.293399	0.399567	0.294554
0	H	0.20995	0.607617	0.7947
0	H	0.855836	0.0451183	0.0455471
0	H	0.649054	0.962229	0.545308
0	H	0.209623	0.106913	0.207517
0	H	0.293831	0.900334	0.707616
0	H	0.648688	0.461633	0.457984
0	H	0.856195	0.545763	0.957653
0	H	0.794682	0.90027	0.794825
0	H	0.710486	0.106753	0.294692
0	H	0.355633	0.545576	0.544274
0	H	0.148238	0.461448	0.0447601
0	C	0.691121	0.554012	0.84138
0	C	0.814096	0.452964	0.3414
0	C	0.201608	0.942525	0.090855
0	C	0.301709	0.0645163	0.590689
0	C	0.313129	0.453129	0.160911
0	C	0.190182	0.554117	0.660906
0	C	0.802603	0.0647301	0.911626
0	C	0.702611	0.94271	0.411525
0	C	0.190199	0.0536011	0.341625
0	C	0.313186	0.953707	0.841598
0	C	0.702276	0.441904	0.591599
0	C	0.802958	0.565575	0.0914388
0	C	0.8141	0.953567	0.660703
0	C	0.691069	0.0533826	0.160734
0	C	0.301955	0.565393	0.410814
0	C	0.201378	0.441666	0.910817
0	H	0.726432	0.522137	0.827954
0	H	0.778696	0.484837	0.328164
0	H	0.233638	0.977644	0.0769876
0	H	0.269867	0.0292353	0.576592
0	H	0.277813	0.484997	0.174327
0	H	0.22544	0.522103	0.67434
0	H	0.770569	0.0296141	0.925468
0	H	0.734431	0.978039	0.425509
0	H	0.225823	0.0220268	0.328747
0	H	0.277496	0.985131	0.828692
0	H	0.733844	0.477509	0.578171
0	H	0.771165	0.530176	0.0781427
0	H	0.778414	0.985087	0.673497
0	H	0.726685	0.0218876	0.173707
0	H	0.270349	0.529842	0.424336
0	H	0.233142	0.477098	0.924006
0	C	0.653986	0.546222	0.928807
0	C	0.851319	0.460696	0.428721
0	C	0.209065	0.905624	0.178791
0	C	0.293906	0.101506	0.67844
0	C	0.350254	0.460913	0.0734662
0	C	0.153027	0.546441	0.573486
0	C	0.795182	0.10166	0.823746
0	C	0.710396	0.905714	0.323785
0	C	0.152897	0.0457315	0.428826
0	C	0.350421	0.961695	0.928869
0	C	0.710213	0.404607	0.678905
0	C	0.795371	0.602763	0.178953
0	C	0.851406	0.961471	0.573502
0	C	0.653851	0.0454544	0.0734378
0	C	0.294015	0.60267	0.323484
0	C	0.208904	0.404455	0.823343
0	C	0.608333	0.587344	0.947803
0	C	0.896997	0.419603	0.447771
0	C	0.167598	0.86039	0.198648
0	C	0.335253	0.146846	0.698395
0	C	0.395893	0.419784	0.0543986
0	C	0.107483	0.58768	0.554262
0	C	0.836617	0.146912	0.803914
0	C	0.669068	0.860336	0.303948
0	C	0.107114	0.086743	0.447644
0	C	0.396295	0.920771	0.947535
0	C	0.669233	0.35881	0.69793
0	C	0.836491	0.64843	0.19796
0	C	0.897239	0.920492	0.554752
0	C	0.608034	0.086423	0.0547204
0	C	0.335028	0.648435	0.304384
0	C	0.167819	0.358754	0.804412
0	C	0.662689	0.49603	0.998661
0	C	0.842519	0.510998	0.498398
0	C	0.259173	0.914106	0.248183
0	C	0.243495	0.092863	0.747653
0	C	0.341516	0.511104	0.00358187
0	C	0.1616	0.496201	0.503977
0	C	0.744906	0.0930049	0.754292
0	C	0.76068	0.914287	0.254507
0	C	0.161503	0.995634	0.498504
0	C	0.341735	0.0116145	0.998884
0	C	0.760343	0.41344	0.748664
0	C	0.745528	0.594063	0.248867
0	C	0.84279	0.0114414	0.503771
0	C	0.662506	0.995461	0.00346667
0	C	0.243963	0.593923	0.253775
0	C	0.258918	0.413327	0.753319
0	C	0.578181	0.536823	0.0996686
0	C	0.927256	0.470283	0.599354
0	C	0.218145	0.830035	0.350156
0	C	0.284514	0.177042	0.84991
0	C	0.426028	0.470355	0.902556
0	C	0.0771351	0.536969	0.402774
0	C	0.786121	0.177204	0.652235
0	C	0.719744	0.830148	0.152371
0	C	0.0768686	0.036157	0.599247
0	C	0.426311	0.971212	0.0994824
0	C	0.719819	0.328491	0.849516
0	C	0.786088	0.678848	0.349622
0	C	0.927421	0.971057	0.403111
0	C	0.578003	0.0360093	0.902761
0	C	0.284436	0.678715	0.152782
0	C	0.21817	0.32835	0.652649
0	C	0.568866	0.537572	0.291664
0	C	0.936246	0.46977	0.791369
0	C	0.217493	0.820857	0.542125
0	C	0.284798	0.186101	0.0417845
0	C	0.435319	0.469532	0.710595
0	C	0.0681214	0.537476	0.210822
0	C	0.786862	0.186251	0.460265
0	C	0.719419	0.821109	0.960508
0	C	0.0675886	0.0374835	0.791208
0	C	0.435818	0.969538	0.291457
0	C	0.719417	0.318924	0.0413278
0	C	0.786917	0.688406	0.541528
0	C	0.936637	0.969673	0.211097
0	C	0.568521	0.0377082	0.710809
0	C	0.284929	0.688183	0.961027
0	C	0.217301	0.318821	0.460755
0	H	0.571466	0.585343	0.310899
0	H	0.933928	0.421974	0.810514
0	H	0.169824	0.82359	0.561181
0	H	0.332427	0.183501	0.0613175
0	H	0.432743	0.421744	0.691453
0	H	0.0704635	0.585273	0.191626
0	H	0.834536	0.18358	0.441223
0	H	0.671782	0.823777	0.941056
0	H	0.0692688	0.0854089	0.810264
0	H	0.433985	0.921651	0.310485
0	H	0.671738	0.321426	0.0606844
0	H	0.834615	0.685933	0.560522
0	H	0.935008	0.921732	0.192143
0	H	0.570359	0.0855762	0.691734
0	H	0.332591	0.685761	0.941604
0	H	0.169597	0.321344	0.441864
0	H	0.614903	0.520896	0.292658
0	H	0.889984	0.486201	0.791901
0	H	0.234161	0.867055	0.542823
0	H	0.268272	0.139857	0.0421855
0	H	0.389256	0.486179	0.709601
0	H	0.114369	0.521021	0.210254
0	H	0.770261	0.140038	0.459656
0	H	0.736006	0.867333	0.960105
0	H	0.114037	0.0215575	0.792096
0	H	0.389585	0.985625	0.292776
0	H	0.735894	0.365203	0.0421174
0	H	0.770432	0.642162	0.542541
0	H	0.890168	0.985538	0.210257
0	H	0.614744	0.0215915	0.709485
0	H	0.268502	0.641906	0.960241
0	H	0.233825	0.365046	0.459754
0	C	0.5302	0.505005	0.371138
0	C	0.974492	0.502704	0.870767
0	C	0.249955	0.782253	0.621659
0	C	0.25223	0.224604	0.121306
0	C	0.473912	0.502074	0.631049
0	C	0.0298899	0.50455	0.131377
0	C	0.754369	0.224778	0.380688
0	C	0.751903	0.782588	0.880914
0	C	0.0295709	0.00391921	0.870096
0	C	0.474251	0.0027861	0.370546
0	C	0.751921	0.280323	0.120569
0	C	0.754355	0.727048	0.620835
0	C	0.974594	0.00323002	0.132165
0	C	0.530078	0.00442937	0.631671
0	C	0.252317	0.72674	0.881595
0	C	0.249792	0.280179	0.381408
0	H	0.529563	0.457031	0.356481
0	H	0.974841	0.550619	0.855724
0	H	0.297773	0.78161	0.606912
0	H	0.204412	0.225271	0.106596
0	H	0.474586	0.55006	0.64563
0	H	0.0295661	0.456635	0.146374
0	H	0.706557	0.225437	0.395475
0	H	0.799735	0.781881	0.895531
0	H	0.0297872	0.956227	0.85447
0	H	0.474315	0.0505151	0.355269
0	H	0.799779	0.279764	0.106036
0	H	0.706535	0.727498	0.606098
0	H	0.974362	0.0509286	0.147728
0	H	0.530071	0.956705	0.64692
0	H	0.204481	0.727243	0.896227
0	H	0.297625	0.279724	0.396023
0	H	0.543522	0.514241	0.452618
0	H	0.961086	0.493546	0.95236
0	H	0.240795	0.795644	0.703083
0	H	0.261404	0.211102	0.202684
0	H	0.46059	0.492816	0.549573
0	H	0.0432455	0.513733	0.0498107
0	H	0.763487	0.211334	0.299283
0	H	0.742697	0.7961	0.799563
0	H	0.0425466	0.0128983	0.951846
0	H	0.461275	0.993703	0.452149
0	H	0.742653	0.293579	0.202063
0	H	0.763565	0.713831	0.702357
0	H	0.9616	0.994236	0.050417
0	H	0.543052	0.0135496	0.550078
0	H	0.261614	0.713426	0.800199
0	H	0.240533	0.293375	0.299936
0	C	0.481043	0.554983	0.183146
0	C	0.0245902	0.452489	0.683414
0	C	0.199919	0.732726	0.433993
0	C	0.30257	0.274286	0.933987
0	C	0.523172	0.452295	0.819115
0	C	0.979796	0.554781	0.318732
0	C	0.804391	0.274455	0.568246
0	C	0.701642	0.732918	0.0683076
0	C	0.979486	0.0543909	0.683137
0	C	0.523495	0.952735	0.182793
0	C	0.701862	0.230992	0.932757
0	C	0.804181	0.776386	0.432814
0	C	0.0247958	0.95294	0.319176
0	C	0.480822	0.0545186	0.819394
0	C	0.302348	0.776196	0.0694179
0	C	0.200083	0.230829	0.569507
0	H	0.461769	0.548623	0.10438
0	H	0.044019	0.458602	0.604726
0	H	0.206005	0.713306	0.355275
0	H	0.296505	0.293795	0.855284
0	H	0.542474	0.458812	0.897827
0	H	0.960376	0.548737	0.397447
0	H	0.798241	0.293937	0.646917
0	H	0.707757	0.713388	0.146982
0	H	0.960141	0.0487736	0.604271
0	H	0.542696	0.958821	0.10395
0	H	0.708079	0.21168	0.853926
0	H	0.797924	0.795656	0.354003
0	H	0.0441618	0.958681	0.39799
0	H	0.461619	0.0484979	0.89825
0	H	0.296092	0.795544	0.148204
0	H	0.206372	0.211552	0.648299
0	H	0.482045	0.603339	0.197757
0	H	0.0235758	0.404195	0.698665
0	H	0.15172	0.733924	0.448915
0	H	0.350737	0.273162	0.948987
0	H	0.522225	0.403909	0.804775
0	H	0.980803	0.603064	0.303349
0	H	0.852594	0.27325	0.553433
0	H	0.653463	0.734062	0.0534136
0	H	0.980492	0.102599	0.699446
0	H	0.522537	0.904424	0.198099
0	H	0.653663	0.232019	0.947486
0	H	0.852399	0.775335	0.447506
0	H	0.0238556	0.904711	0.303047
0	H	0.481776	0.102813	0.803948
0	H	0.350555	0.775197	0.054724
0	H	0.151854	0.231866	0.554873
0	C	0.444098	0.522883	0.266064
0	C	0.0611597	0.485098	0.76621
0	C	0.232133	0.695783	0.516814
0	C	0.270294	0.311121	0.0166932
0	C	0.560084	0.484282	0.736003
0	C	0.943226	0.522096	0.236043
0	C	0.772226	0.311341	0.485274
0	C	0.733843	0.69607	0.985526
0	C	0.942957	0.0209789	0.764919
0	C	0.560342	0.985471	0.26504
0	C	0.734037	0.193967	0.0153006
0	C	0.772001	0.813427	0.515551
0	C	0.0612609	0.986304	0.237225
0	C	0.444002	0.021698	0.737239
0	C	0.270176	0.813146	0.986798
0	C	0.232233	0.193799	0.486727
0	H	0.401194	0.544657	0.278119
0	H	0.10429	0.463686	0.778744
0	H	0.210624	0.652694	0.529002
0	H	0.291831	0.354225	0.0290116
0	H	0.602971	0.462463	0.723951
0	H	0.900051	0.543434	0.22355
0	H	0.793793	0.354388	0.472962
0	H	0.712279	0.652986	0.973239
0	H	0.899463	0.0416165	0.777524
0	H	0.603551	0.964333	0.277218
0	H	0.712436	0.150859	0.0272785
0	H	0.793568	0.856507	0.527562
0	H	0.104758	0.965662	0.224613
0	H	0.400753	0.0427595	0.725066
0	H	0.291761	0.856249	0.974719
0	H	0.210697	0.150698	0.474778
0	H	0.437961	0.475778	0.246883
0	H	0.0668983	0.532226	0.746519
0	H	0.279067	0.689856	0.497324
0	H	0.223373	0.317107	0.997226
0	H	0.566255	0.531408	0.75502
0	H	0.937567	0.474964	0.255803
0	H	0.725295	0.317343	0.504744
0	H	0.780772	0.690056	0.00491184
0	H	0.937952	0.974046	0.74445
0	H	0.565887	0.0324092	0.245251
0	H	0.780963	0.187964	0.995873
0	H	0.725068	0.819389	0.496024
0	H	0.0662599	0.0332512	0.257573
0	H	0.438527	0.97476	0.757092
0	H	0.223246	0.819154	0.00618788
0	H	0.279184	0.18787	0.506186
0	C	0.620078	0.438323	0.146605
0	C	0.885402	0.568869	0.645691
0	C	0.316784	0.871337	0.395981
0	C	0.185939	0.135715	0.895524
0	C	0.384139	0.56886	0.855717
0	C	0.118852	0.438315	0.35652
0	C	0.68751	0.135851	0.606381
0	C	0.818329	0.871441	0.106712
0	C	0.118515	0.937784	0.645983
0	C	0.384487	0.0694404	0.146803
0	C	0.81805	0.37035	0.896124
0	C	0.687828	0.636976	0.396421
0	C	0.885723	0.0694186	0.356354
0	C	0.619752	0.937755	0.855446
0	C	0.186211	0.636859	0.106185
0	C	0.316439	0.370224	0.605822
0	C	0.667289	0.427744	0.214402
0	C	0.838202	0.57968	0.713405
0	C	0.327536	0.918596	0.463888
0	C	0.175477	0.0887517	0.964146
0	C	0.336955	0.579422	0.787843
0	C	0.16607	0.427501	0.288816
0	C	0.676867	0.0886265	0.538363
0	C	0.828869	0.918456	0.0381889
0	C	0.165841	0.927111	0.713518
0	C	0.337184	0.0798696	0.2145
0	C	0.828616	0.41748	0.964359
0	C	0.677147	0.589606	0.464134
0	C	0.83841	0.0800713	0.288763
0	C	0.667071	0.927312	0.787761
0	C	0.175764	0.589746	0.0378093
0	C	0.327195	0.417604	0.538195
0	H	0.704075	0.458907	0.21744
0	H	0.801337	0.548602	0.716415
0	H	0.296406	0.955432	0.467352
0	H	0.206519	0.0518537	0.96763
0	H	0.300173	0.548248	0.784796
0	H	0.202925	0.45858	0.285807
0	H	0.708042	0.0518226	0.534876
0	H	0.797866	0.955377	0.0347896
0	H	0.202855	0.958049	0.715785
0	H	0.300255	0.0488374	0.216806
0	H	0.797672	0.454474	0.967495
0	H	0.708253	0.552727	0.467315
0	H	0.801409	0.0491236	0.286494
0	H	0.704002	0.958353	0.785488
0	H	0.206752	0.552798	0.0346763
0	H	0.296126	0.454515	0.535109
0	C	0.666369	0.377981	0.278374
0	C	0.839289	0.629558	0.777063
0	C	0.37735	0.91758	0.527368
0	C	0.125987	0.0900517	0.0282518
0	C	0.337912	0.629135	0.723798
0	C	0.164986	0.377613	0.225185
0	C	0.627079	0.0895992	0.474827
0	C	0.878355	0.917111	0.974082
0	C	0.164688	0.877512	0.777884
0	C	0.338182	0.129294	0.27928
0	C	0.878103	0.416238	0.0284838
0	C	0.627357	0.590489	0.527691
0	C	0.839588	0.129634	0.224325
0	C	0.666091	0.877891	0.723022
0	C	0.126317	0.590963	0.9736
0	C	0.376943	0.416672	0.474588
0	H	0.702929	0.368508	0.331141
0	H	0.802728	0.639258	0.829709
0	H	0.387001	0.954204	0.580189
0	H	0.116512	0.0536315	0.0816236
0	H	0.301393	0.638565	0.670915
0	H	0.201547	0.3679	0.172558
0	H	0.617533	0.0529948	0.421905
0	H	0.887879	0.953536	0.920763
0	H	0.201417	0.867813	0.83022
0	H	0.301515	0.138719	0.331817
0	H	0.887602	0.452725	0.0816187
0	H	0.617835	0.55383	0.580401
0	H	0.802889	0.139283	0.171897
0	H	0.702767	0.86845	0.6705
0	H	0.116936	0.554498	0.92035
0	H	0.386523	0.453341	0.421881
0	C	0.617469	0.34083	0.273151
0	C	0.888294	0.666563	0.771535
0	C	0.414364	0.868545	0.521511
0	C	0.0890047	0.139137	0.0224278
0	C	0.386794	0.666319	0.729089
0	C	0.115978	0.340627	0.230685
0	C	0.589954	0.138536	0.480777
0	C	0.915241	0.867971	0.979783
0	C	0.115496	0.840743	0.77339
0	C	0.387246	0.166245	0.275003
0	C	0.915001	0.367065	0.0230526
0	C	0.590243	0.639455	0.522045
0	C	0.888751	0.166436	0.228881
0	C	0.617023	0.840945	0.727245
0	C	0.0893237	0.64003	0.979097
0	C	0.413966	0.367608	0.480104
0	C	0.570221	0.350387	0.205608
0	C	0.935452	0.656848	0.703823
0	C	0.404623	0.821216	0.453914
0	C	0.0982771	0.186046	0.953888
0	C	0.433987	0.656819	0.7968
0	C	0.068774	0.350378	0.2983
0	C	0.599572	0.185829	0.548533
0	C	0.905876	0.820993	0.0481924
0	C	0.0683029	0.850251	0.705721
0	C	0.434454	0.157004	0.207246
0	C	0.905604	0.319985	0.954933
0	C	0.599898	0.686875	0.454579
0	C	0.93591	0.156985	0.296683
0	C	0.569765	0.850226	0.794891
0	C	0.0985718	0.687084	0.0474145
0	C	0.404243	0.320162	0.547439
0	H	0.532804	0.320438	0.20376
0	H	0.972883	0.686769	0.701506
0	H	0.434464	0.783677	0.451586
0	H	0.0683162	0.223526	0.951376
0	H	0.471374	0.686799	0.798731
0	H	0.0313246	0.320487	0.300533
0	H	0.56963	0.22328	0.550962
0	H	0.935753	0.783441	0.0505472
0	H	0.0308263	0.820415	0.703964
0	H	0.471887	0.186958	0.205786
0	H	0.935465	0.282426	0.952752
0	H	0.569983	0.724353	0.452345
0	H	0.97336	0.186859	0.298508
0	H	0.532312	0.820298	0.796258
0	H	0.0686021	0.724571	0.0496781
0	H	0.434068	0.282595	0.549526
0	C	0.571809	0.399734	0.140924
0	C	0.933721	0.607367	0.639489
0	C	0.355193	0.822899	0.389774
0	C	0.147335	0.183991	0.888897
0	C	0.432385	0.607473	0.861468
0	C	0.0705098	0.399859	0.362652
0	C	0.649001	0.184197	0.612696
0	C	0.856813	0.823082	0.113173
0	C	0.0700811	0.899398	0.640566
0	C	0.432823	0.107985	0.141776
0	C	0.856543	0.321968	0.889937
0	C	0.649326	0.685343	0.390404
0	C	0.934135	0.107837	0.361819
0	C	0.571392	0.89924	0.860369
0	C	0.147612	0.685138	0.112464
0	C	0.354842	0.321742	0.611649
0	H	0.535313	0.408664	0.0877578
0	H	0.97007	0.598249	0.586051
0	H	0.346009	0.786346	0.336569
0	H	0.156065	0.22014	0.834717
0	H	0.468861	0.598553	0.914697
0	H	0.0341357	0.409001	0.416009
0	H	0.658097	0.220729	0.666004
0	H	0.848008	0.786878	0.167187
0	H	0.0336816	0.908395	0.587105
0	H	0.469327	0.0992246	0.0884693
0	H	0.847742	0.28568	0.836104
0	H	0.658418	0.721954	0.337297
0	H	0.970523	0.0988536	0.415309
0	H	0.534851	0.908024	0.913596
0	H	0.156313	0.721398	0.166414
0	H	0.345663	0.28508	0.664645
0	F	0.615265	0.294043	0.336079
0	F	0.890675	0.713428	0.834279
0	F	0.461264	0.866308	0.583854
0	F	0.0425303	0.141808	0.0856901
0	F	0.389051	0.713038	0.66602
0	F	0.11361	0.293739	0.167988
0	F	0.543077	0.140738	0.418399
0	F	0.9617	0.865244	0.916471
0	F	0.113046	0.794207	0.836827
0	F	0.389583	0.212639	0.338801
0	F	0.96148	0.364482	0.0863449
0	F	0.543337	0.64154	0.584398
0	F	0.891235	0.212922	0.165327
0	F	0.614708	0.794535	0.663502
0	F	0.0428796	0.642612	0.915726
0	F	0.460812	0.365474	0.417642
0	N	0.619935	0.490768	0.0809737
0	N	0.885484	0.516293	0.580439
0	N	0.264396	0.871393	0.330662
0	N	0.238318	0.135651	0.830169
0	N	0.384287	0.516394	0.921306
0	N	0.118804	0.490876	0.421802
0	N	0.739896	0.135836	0.671763
0	N	0.765947	0.871544	0.172043
0	N	0.118444	0.990242	0.580336
0	N	0.384664	0.017091	0.0808651
0	N	0.765719	0.37035	0.830668
0	N	0.740153	0.637041	0.330935
0	N	0.885802	0.0169606	0.421958
0	N	0.61959	0.990095	0.921406
0	N	0.238521	0.636888	0.171687
0	N	0.264106	0.370172	0.671308
0	N	0.571835	0.582298	0.035351
0	N	0.933614	0.424701	0.535269
0	N	0.172442	0.82406	0.28663
0	N	0.330236	0.183157	0.78638
0	N	0.432354	0.424825	0.966818
0	N	0.070866	0.582614	0.466772
0	N	0.83182	0.183206	0.715916
0	N	0.674039	0.824037	0.21594
0	N	0.0704664	0.081758	0.534997
0	N	0.432758	0.925746	0.0350176
0	N	0.674325	0.322211	0.78553
0	N	0.831585	0.685028	0.285577
0	N	0.933847	0.92548	0.467307
0	N	0.571568	0.0814857	0.967225
0	N	0.329939	0.685007	0.216745
0	N	0.172697	0.322184	0.716764
0	N	0.540864	0.527613	0.187363
0	N	0.964376	0.479661	0.687124
0	N	0.227409	0.792639	0.437912
0	N	0.275137	0.214352	0.937646
0	N	0.463327	0.479589	0.814857
0	N	0.0399999	0.527596	0.315025
0	N	0.776906	0.214518	0.564442
0	N	0.729097	0.792836	0.0646213
0	N	0.0396983	0.0271306	0.686938
0	N	0.463641	0.980101	0.187158
0	N	0.729193	0.29097	0.936965
0	N	0.776843	0.716403	0.437137
0	N	0.96455	0.980103	0.315343
0	N	0.540678	0.0271481	0.815071
0	N	0.275072	0.716198	0.0652637
0	N	0.227392	0.290826	0.565146
0	O	0.701318	0.458813	0.991988
0	O	0.803847	0.548031	0.491837
0	O	0.296661	0.95277	0.241095
0	O	0.206309	0.0544386	0.74035
0	O	0.302821	0.548236	0.0102113
0	O	0.200308	0.45879	0.510757
0	O	0.707726	0.0546282	0.761332
0	O	0.798003	0.952873	0.261766
0	O	0.200154	0.958502	0.492002
0	O	0.302913	0.0486559	0.99252
0	O	0.797196	0.452273	0.742208
0	O	0.708412	0.555011	0.242627
0	O	0.803928	0.0485965	0.510175
0	O	0.701158	0.958369	0.00995895
0	O	0.20694	0.554962	0.260313
0	O	0.295697	0.452088	0.759489
0	O	0.470814	0.52732	0.367817
0	O	0.0344129	0.480959	0.867838
0	O	0.227777	0.722642	0.618494
0	O	0.274413	0.284205	0.118415
0	O	0.533316	0.479735	0.63432
0	O	0.969935	0.526224	0.134385
0	O	0.776551	0.284395	0.383685
0	O	0.729688	0.723001	0.883817
0	O	0.969344	0.0248342	0.866893
0	O	0.533917	0.981224	0.367012
0	O	0.729904	0.220639	0.117208
0	O	0.776317	0.786733	0.61736
0	O	0.0348307	0.982349	0.135308
0	O	0.470396	0.0259342	0.635232
0	O	0.274315	0.786411	0.884906
0	O	0.227861	0.220488	0.384938
