#******************************************
#
# CIF file created by Zeo++
# Zeo++ is an open source package to
# analyze microporous materials
#
#*******************************************

_cell_length_a		24.6383(0)
_cell_length_b		24.6422(0)
_cell_length_c		10.8992(0)
_cell_angle_alpha		90(0)
_cell_angle_beta		90(0)
_cell_angle_gamma		119.983(0)

_symmetry_space_group_name_H-M		'P1'
_symmetry_Int_Tables_number		1
_symmetry_cell_setting		Monoclinic

loop_
_symmetry_equiv_pos_as_xyz
'+x,+y,+z'

loop_
_atom_site_label
_atom_site_type_symbol
_atom_site_fract_x
_atom_site_fract_y
_atom_site_fract_z
0	N	0.519553	0.343649	0.27104
0	N	0.654757	0.175598	0.250052
0	N	0.821785	0.478099	0.260277
0	N	0.446332	0.351497	0.501482
0	N	0.64821	0.0997893	0.490898
0	N	0.900166	0.549537	0.496161
0	N	0.437854	0.193187	0.980598
0	N	0.803971	0.243866	0.977493
0	N	0.753696	0.560042	0.980198
0	N	0.605877	0.496176	0.982093
0	N	0.501307	0.108609	0.97678
0	N	0.888002	0.391633	0.978882
0	C	0.60208	0.317844	0.261359
0	C	0.679342	0.283764	0.257302
0	C	0.71345	0.39508	0.25959
0	C	0.616712	0.269534	0.258627
0	C	0.727666	0.346688	0.25689
0	C	0.6505	0.38044	0.261339
0	H	0.579439	0.220493	0.259458
0	H	0.776719	0.358391	0.256435
0	H	0.638774	0.417742	0.264711
0	C	0.535245	0.30074	0.270282
0	C	0.69643	0.234019	0.265377
0	C	0.763164	0.461894	0.268194
0	H	0.502283	0.249778	0.277304
0	H	0.746298	0.251774	0.28795
0	H	0.745154	0.494431	0.283611
0	C	0.489658	0.367034	0.705482
0	C	0.631593	0.124101	0.697555
0	C	0.87406	0.507511	0.701669
0	C	0.45773	0.303138	0.734774
0	C	0.695374	0.155856	0.727983
0	C	0.8423	0.539585	0.731736
0	H	0.426286	0.26923	0.666911
0	H	0.729633	0.158994	0.660234
0	H	0.839538	0.570925	0.664022
0	C	0.466767	0.282927	0.849645
0	C	0.715066	0.184	0.843927
0	C	0.813665	0.530859	0.847221
0	C	0.506935	0.32697	0.935648
0	C	0.670589	0.179328	0.929658
0	C	0.817829	0.49073	0.932908
0	H	0.514427	0.310733	0.0241907
0	H	0.686425	0.20218	0.0191206
0	H	0.794567	0.483458	0.0219513
0	C	0.537747	0.391274	0.907805
0	C	0.606373	0.146149	0.90075
0	C	0.851022	0.459681	0.904282
0	C	0.528912	0.411166	0.792915
0	C	0.587038	0.118496	0.784873
0	C	0.879208	0.468285	0.788885
0	H	0.553307	0.461232	0.77184
0	H	0.537054	0.0930298	0.76307
0	H	0.904694	0.443739	0.767316
0	C	0.486665	0.38926	0.580639
0	C	0.609643	0.0989538	0.572494
0	C	0.899229	0.510515	0.576731
0	H	0.522379	0.438649	0.563209
0	H	0.559237	0.0816427	0.557318
0	H	0.914685	0.47602	0.56055
0	C	0.435913	0.214641	0.87323
0	C	0.78322	0.221086	0.869413
0	C	0.776495	0.561902	0.87219
0	H	0.413009	0.185453	0.791408
0	H	0.812933	0.227691	0.788288
0	H	0.769837	0.584824	0.790833
0	C	0.581597	0.436493	0.999357
0	C	0.561084	0.1442	0.992849
0	C	0.852535	0.415895	0.995811
0	H	0.5911	0.41435	0.0786432
0	H	0.583405	0.175778	0.0722865
0	H	0.820869	0.40642	0.0751172
0	C	0.452976	0.32537	0.285828
0	C	0.672679	0.127384	0.271497
0	C	0.87002	0.54446	0.278463
0	H	0.423374	0.276606	0.322883
0	H	0.721706	0.14712	0.307425
0	H	0.85054	0.57391	0.314816
0	C	0.448219	0.372862	0.374253
0	C	0.625698	0.0779727	0.364996
0	C	0.920806	0.548034	0.369637
0	H	0.488125	0.421165	0.355813
0	H	0.577559	0.070147	0.346866
0	H	0.928818	0.50783	0.351615
0	C	0.385806	0.369359	0.33843
0	C	0.627411	0.0174265	0.335338
0	C	0.980655	0.610248	0.336725
0	H	0.347479	0.33668	0.399553
0	H	0.659483	0.0119531	0.398536
0	H	0.986365	0.648279	0.398788
0	H	0.389001	0.41536	0.34917
0	H	0.580841	0.975648	0.348257
0	H	0.0228617	0.606078	0.34862
0	C	0.372392	0.346279	0.204454
0	C	0.650181	0.0236227	0.201603
0	C	0.972778	0.625214	0.202782
0	H	0.371575	0.381692	0.143479
0	H	0.614591	0.98594	0.143335
0	H	0.00968553	0.626503	0.143205
0	H	0.325658	0.303933	0.19665
0	H	0.692448	0.0189149	0.196653
0	H	0.977465	0.672122	0.196271
0	C	0.423905	0.331919	0.165061
0	C	0.664693	0.088453	0.154945
0	C	0.907359	0.574421	0.159771
0	H	0.40534	0.289081	0.108838
0	H	0.707072	0.110892	0.0971128
0	H	0.884066	0.593771	0.10276
0	H	0.459501	0.370444	0.108057
0	H	0.625882	0.0844901	0.09735
0	H	0.910709	0.539149	0.10244
0	C	0.410341	0.124844	0.995895
0	C	0.872195	0.284536	0.994882
0	C	0.712923	0.587532	0.997097
0	H	0.397843	0.0986687	0.90673
0	H	0.898981	0.29895	0.906426
0	H	0.698349	0.599544	0.908402
0	C	0.352116	0.0969977	0.0799127
0	C	0.899662	0.253701	0.0787188
0	C	0.743753	0.646113	0.0801194
0	H	0.355347	0.132239	0.146774
0	H	0.864205	0.221566	0.145101
0	H	0.776083	0.64313	0.146535
0	H	0.309053	0.0829003	0.026704
0	H	0.913832	0.224859	0.0253116
0	H	0.772437	0.688933	0.026126
0	C	0.350905	0.0409993	0.145222
0	C	0.955563	0.308171	0.144932
0	C	0.689282	0.647662	0.146162
0	H	0.313812	0.996272	0.106639
0	H	0.000369684	0.315947	0.106421
0	H	0.68138	0.684503	0.107078
0	H	0.339218	0.0401243	0.243329
0	H	0.956251	0.296958	0.242882
0	H	0.700606	0.65986	0.243956
0	C	0.415918	0.0472292	0.128327
0	C	0.949343	0.366997	0.129022
0	C	0.630508	0.582539	0.13104
0	H	0.436182	0.0443455	0.216371
0	H	0.952217	0.389915	0.217329
0	H	0.607655	0.56277	0.21953
0	H	0.412667	0.00889626	0.0703404
0	H	0.987672	0.402241	0.0712388
0	H	0.595165	0.585375	0.0730931
0	C	0.457794	0.111515	0.0663413
0	C	0.885059	0.344727	0.0670602
0	C	0.652839	0.5404	0.0698012
0	H	0.481933	0.14821	0.138654
0	H	0.848191	0.331538	0.139237
0	H	0.666149	0.517012	0.142372
0	N	0.172707	0.0707343	0.469665
0	N	0.926531	0.101198	0.469968
0	N	0.896185	0.824654	0.469346
0	N	0.258356	0.108294	0.705944
0	N	0.888942	0.148968	0.706531
0	N	0.848588	0.739227	0.705901
0	N	0.152237	0.936099	0.195427
0	N	0.060952	0.214335	0.196209
0	N	0.783214	0.845576	0.195804
0	N	0.0221576	0.810108	0.195474
0	N	0.187104	0.210179	0.19605
0	N	0.786828	0.975509	0.195993
0	C	0.0632701	0.0415031	0.47623
0	C	0.955803	0.0210498	0.47634
0	C	0.976277	0.934065	0.476187
0	C	0.0410346	0.976891	0.475982
0	C	0.0204114	0.0634374	0.476166
0	C	0.933858	0.956287	0.476121
0	H	0.0746125	0.960139	0.477441
0	H	0.0371153	0.113746	0.477789
0	H	0.883549	0.922704	0.477713
0	C	0.131265	0.0879673	0.482817
0	C	0.90928	0.0425326	0.482988
0	C	0.954819	0.86609	0.482752
0	H	0.141829	0.136469	0.500957
0	H	0.860768	0.00460141	0.501031
0	H	0.992778	0.855562	0.501095
0	C	0.212008	0.0756481	0.907574
0	C	0.921371	0.135105	0.908299
0	C	0.862636	0.785488	0.907792
0	C	0.21539	0.132588	0.937539
0	C	0.864405	0.0815222	0.937909
0	C	0.916141	0.781943	0.937437
0	H	0.232508	0.170013	0.869146
0	H	0.827032	0.0612822	0.869393
0	H	0.936333	0.764738	0.868932
0	C	0.196311	0.140837	0.0542149
0	C	0.856083	0.0540806	0.0544504
0	C	0.943558	0.800975	0.0540342
0	C	0.175093	0.0924507	0.140717
0	C	0.904409	0.0810937	0.141166
0	C	0.916536	0.822274	0.140801
0	H	0.160144	0.0991011	0.231464
0	H	0.897682	0.0593536	0.231791
0	H	0.938225	0.837114	0.231504
0	C	0.172294	0.035588	0.111446
0	C	0.961308	0.135187	0.112244
0	C	0.862529	0.825257	0.111829
0	C	0.190678	0.0271697	0.994871
0	C	0.969763	0.16214	0.995803
0	C	0.835665	0.80693	0.995293
0	H	0.188057	0.982644	0.972811
0	H	0.0142718	0.204094	0.973993
0	H	0.793822	0.809692	0.973377
0	C	0.227493	0.0632154	0.783087
0	C	0.933919	0.163185	0.783966
0	C	0.834512	0.770033	0.783493
0	H	0.209421	0.0129411	0.764222
0	H	0.984213	0.19551	0.765479
0	H	0.802227	0.788084	0.765179
0	C	0.14651	0.985368	0.205146
0	C	0.0115181	0.15947	0.205966
0	C	0.838158	0.851146	0.205545
0	H	0.122196	0.994411	0.281363
0	H	0.00235965	0.126115	0.282245
0	H	0.871532	0.875396	0.28176
0	C	0.00347716	0.803034	0.0826505
0	C	0.194071	0.198574	0.0831703
0	C	0.798299	0.994146	0.0831498
0	H	0.02908	0.800387	0.00199952
0	H	0.196512	0.226738	0.00250131
0	H	0.769985	0.968511	0.00259455
0	C	0.23977	0.117619	0.484838
0	C	0.879687	0.121434	0.485235
0	C	0.875935	0.757581	0.484539
0	H	0.248156	0.164714	0.515029
0	H	0.832536	0.0827676	0.515175
0	H	0.914627	0.749059	0.514241
0	C	0.269455	0.0928333	0.580941
0	C	0.90454	0.175732	0.581705
0	C	0.82171	0.728184	0.581174
0	H	0.250339	0.0414677	0.565622
0	H	0.955948	0.207847	0.566535
0	H	0.789663	0.747599	0.566283
0	C	0.340028	0.129092	0.548819
0	C	0.868486	0.210284	0.549784
0	C	0.78693	0.657608	0.549153
0	H	0.363854	0.174418	0.598258
0	H	0.823051	0.188756	0.598913
0	H	0.808239	0.633506	0.59833
0	H	0.363391	0.102902	0.576609
0	H	0.894734	0.259754	0.578023
0	H	0.737427	0.6346	0.577253
0	C	0.343208	0.140005	0.409122
0	C	0.857782	0.20289	0.41
0	C	0.794357	0.654284	0.409387
0	H	0.378694	0.188919	0.386684
0	H	0.808969	0.189797	0.387446
0	H	0.80749	0.618585	0.386835
0	H	0.357549	0.109685	0.360913
0	H	0.888359	0.247567	0.362085
0	H	0.74966	0.64016	0.36147
0	C	0.277584	0.125311	0.36651
0	C	0.872161	0.151788	0.367086
0	C	0.845437	0.719745	0.36644
0	H	0.255027	0.0819884	0.310822
0	H	0.915461	0.172382	0.311326
0	H	0.824778	0.742478	0.310933
0	H	0.279474	0.162725	0.307844
0	H	0.834639	0.116453	0.308366
0	H	0.880702	0.71754	0.307476
0	C	0.121515	0.886955	0.289762
0	C	0.110105	0.232601	0.290504
0	C	0.764692	0.876246	0.290152
0	H	0.0877434	0.893599	0.348308
0	H	0.103449	0.19211	0.348798
0	H	0.805114	0.910101	0.348548
0	C	0.0851929	0.82122	0.226306
0	C	0.175896	0.262039	0.227167
0	C	0.735037	0.912471	0.227061
0	H	0.112469	0.819985	0.145363
0	H	0.177229	0.290651	0.146325
0	H	0.706331	0.885158	0.146364
0	C	0.0820206	0.774844	0.325591
0	C	0.22217	0.305142	0.326725
0	C	0.69206	0.915723	0.326818
0	H	0.0891823	0.738053	0.283976
0	H	0.258883	0.349198	0.285326
0	H	0.648078	0.908737	0.28568
0	H	0.0353333	0.750538	0.369513
0	H	0.246582	0.282815	0.370468
0	H	0.714608	0.962366	0.370873
0	C	0.1335	0.813581	0.420439
0	C	0.183364	0.317682	0.421788
0	C	0.679377	0.864143	0.421351
0	H	0.112677	0.810837	0.511492
0	H	0.186072	0.299454	0.512706
0	H	0.697368	0.884824	0.512528
0	H	0.165778	0.7951	0.431934
0	H	0.201828	0.368408	0.433711
0	H	0.628628	0.83181	0.432708
0	C	0.168931	0.881651	0.374053
0	C	0.115326	0.285135	0.375267
0	C	0.712114	0.828831	0.374681
0	H	0.184675	0.916041	0.449145
0	H	0.0808804	0.266304	0.450261
0	H	0.730921	0.813177	0.449655
0	H	0.211513	0.891014	0.322601
0	H	0.105966	0.31847	0.324253
0	H	0.678874	0.786208	0.323418
0	N	0.31859	0.506564	0.709079
0	N	0.490684	0.809647	0.709155
0	N	0.187642	0.678695	0.708969
0	N	0.306261	0.426917	0.945329
0	N	0.570571	0.877338	0.9451
0	N	0.120124	0.690986	0.94502
0	N	0.16372	0.452651	0.425
0	N	0.5449	0.709042	0.424935
0	N	0.288446	0.833513	0.424772
0	N	0.463242	0.561314	0.428276
0	N	0.436228	0.899844	0.428304
0	N	0.097493	0.534169	0.428323
0	C	0.345363	0.615548	0.711518
0	C	0.381702	0.727377	0.711525
0	C	0.269873	0.651914	0.711467
0	C	0.283185	0.60266	0.711085
0	C	0.394608	0.6781	0.711135
0	C	0.319137	0.714078	0.711083
0	H	0.245178	0.553927	0.71292
0	H	0.443354	0.688835	0.712997
0	H	0.308379	0.752075	0.712901
0	C	0.361155	0.564913	0.720984
0	C	0.432295	0.793793	0.720958
0	C	0.203449	0.636129	0.720842
0	H	0.411146	0.582032	0.741322
0	H	0.415101	0.826621	0.741172
0	H	0.170589	0.586139	0.74108
0	C	0.290136	0.457678	0.145116
0	C	0.539793	0.830402	0.144871
0	C	0.166958	0.707148	0.144878
0	C	0.353975	0.487238	0.175068
0	C	0.510277	0.86472	0.174934
0	C	0.132608	0.643337	0.174941
0	H	0.387413	0.488565	0.10725
0	H	0.508956	0.896863	0.107191
0	H	0.100437	0.609912	0.10721
0	C	0.374697	0.515419	0.290476
0	C	0.482106	0.857236	0.290355
0	C	0.140089	0.622625	0.290347
0	C	0.331334	0.513496	0.375962
0	C	0.483997	0.815754	0.375767
0	C	0.181596	0.66597	0.375749
0	H	0.34792	0.535781	0.465602
0	H	0.461705	0.810046	0.4654
0	H	0.187329	0.649389	0.465373
0	C	0.267226	0.483716	0.346625
0	C	0.513723	0.78138	0.346321
0	C	0.21596	0.730055	0.346335
0	C	0.246689	0.455589	0.231347
0	C	0.541827	0.788978	0.231002
0	C	0.208373	0.750583	0.231036
0	H	0.196717	0.432309	0.20939
0	H	0.565036	0.762225	0.208926
0	H	0.235112	0.800535	0.208994
0	C	0.268206	0.431687	0.0204427
0	C	0.565708	0.834444	0.0201145
0	C	0.162922	0.729044	0.0201469
0	H	0.21947	0.419347	0.000127587
0	H	0.57789	0.797946	0.99964
0	H	0.19932	0.777761	0.999774
0	C	0.4429	0.55075	0.316415
0	C	0.446687	0.890013	0.316395
0	C	0.10724	0.55445	0.316415
0	H	0.472446	0.567547	0.233178
0	H	0.42968	0.902591	0.233233
0	H	0.0945052	0.524855	0.233255
0	C	0.223893	0.485318	0.439237
0	C	0.512057	0.73639	0.438869
0	C	0.260902	0.773349	0.438964
0	H	0.248237	0.516409	0.518317
0	H	0.48074	0.729458	0.51766
0	H	0.267601	0.748953	0.518028
0	C	0.336201	0.45804	0.729817
0	C	0.539072	0.875822	0.729735
0	C	0.121483	0.661014	0.729599
0	H	0.384187	0.477251	0.770679
0	H	0.519739	0.90447	0.770721
0	H	0.0927886	0.613049	0.770542
0	C	0.287163	0.406514	0.817618
0	C	0.590821	0.878571	0.817274
0	C	0.11885	0.710031	0.817245
0	H	0.239179	0.397726	0.794488
0	H	0.599729	0.839447	0.794219
0	H	0.157999	0.758023	0.794137
0	C	0.291936	0.347666	0.787591
0	C	0.649486	0.942261	0.786866
0	C	0.0551787	0.705119	0.787007
0	H	0.246525	0.304601	0.800052
0	H	0.692647	0.939999	0.798728
0	H	0.057422	0.750498	0.799288
0	H	0.325299	0.344003	0.850397
0	H	0.653182	0.979219	0.849906
0	H	0.0181886	0.671749	0.849832
0	C	0.315274	0.355528	0.654003
0	C	0.64128	0.957734	0.653459
0	C	0.0397562	0.681696	0.653456
0	H	0.356547	0.349039	0.64807
0	H	0.647353	0.00530946	0.647781
0	H	0.992059	0.640394	0.647513
0	H	0.27935	0.319476	0.59384
0	H	0.677407	0.9582	0.592945
0	H	0.0395511	0.717549	0.593135
0	C	0.331999	0.421697	0.611433
0	C	0.575193	0.907973	0.611169
0	C	0.0893181	0.665072	0.611114
0	H	0.295736	0.419748	0.548869
0	H	0.577403	0.873733	0.548803
0	H	0.123589	0.701371	0.548579
0	H	0.376521	0.44522	0.559931
0	H	0.551325	0.92859	0.55958
0	H	0.0684899	0.620549	0.559676
0	C	0.530922	0.60281	0.450797
0	C	0.394552	0.925826	0.45088
0	C	0.0713863	0.466514	0.450911
0	H	0.560076	0.616826	0.365262
0	H	0.380464	0.940914	0.365354
0	H	0.0562578	0.437341	0.365391
0	C	0.556599	0.573275	0.542538
0	C	0.423934	0.980991	0.54268
0	C	0.0162083	0.440819	0.542708
0	H	0.518438	0.537825	0.60037
0	H	0.459422	0.978371	0.600581
0	H	0.0188538	0.478931	0.600625
0	H	0.57726	0.548777	0.493835
0	H	0.448348	0.0261541	0.494034
0	H	0.971052	0.420161	0.494049
0	C	0.605548	0.627605	0.621742
0	C	0.369493	0.975437	0.621788
0	C	0.0216485	0.391842	0.62175
0	H	0.653102	0.635295	0.605024
0	H	0.361687	0.0152033	0.605038
0	H	0.981812	0.344316	0.60499
0	H	0.595953	0.616304	0.72028
0	H	0.380775	0.977171	0.720355
0	H	0.0199843	0.401399	0.720324
0	C	0.122516	0.457344	0.517714
0	C	0.540107	0.663094	0.517635
0	C	0.334303	0.87463	0.517606
0	H	0.148325	0.49666	0.58445
0	H	0.500731	0.649591	0.584254
0	H	0.347832	0.848757	0.584164
0	C	0.0841238	0.395283	0.588962
0	C	0.602107	0.686652	0.589116
0	C	0.31055	0.912911	0.589039
0	H	0.0761525	0.355011	0.531292
0	H	0.642442	0.718993	0.53163
0	H	0.278141	0.920806	0.531507
0	H	0.109498	0.393941	0.670942
0	H	0.603353	0.713264	0.671196
0	H	0.283962	0.887513	0.671084
