#******************************************
#
# CIF file created by Zeo++
# Zeo++ is an open source package to
# analyze microporous materials
#
#*******************************************

_cell_length_a		18.8744(0)
_cell_length_b		18.9492(0)
_cell_length_c		7.88113(0)
_cell_angle_alpha		90(0)
_cell_angle_beta		90(0)
_cell_angle_gamma		90(0)

_symmetry_space_group_name_H-M		'P1'
_symmetry_Int_Tables_number		1
_symmetry_cell_setting		Monoclinic

loop_
_symmetry_equiv_pos_as_xyz
'+x,+y,+z'

loop_
_atom_site_label
_atom_site_type_symbol
_atom_site_fract_x
_atom_site_fract_y
_atom_site_fract_z
0	O	0.328609	0.110212	0.997107
0	O	0.694407	0.90885	0.997214
0	O	0.112292	0.692076	0.0577881
0	O	0.910978	0.327319	0.0573951
0	O	0.192962	0.611553	0.557794
0	O	0.830476	0.407679	0.557407
0	O	0.409316	0.19063	0.49706
0	O	0.61381	0.828311	0.497204
0	H	0.363802	0.126394	0.906271
0	H	0.65921	0.89264	0.90643
0	H	0.128538	0.656952	0.148448
0	H	0.894826	0.362511	0.148017
0	H	0.157576	0.627622	0.648355
0	H	0.865947	0.391712	0.647891
0	H	0.393259	0.155377	0.406421
0	H	0.629847	0.863564	0.406544
0	O	0.412705	0.0985849	0.745756
0	O	0.610336	0.920359	0.745864
0	O	0.100667	0.608232	0.309082
0	O	0.922764	0.411163	0.308743
0	O	0.108728	0.59982	0.809035
0	O	0.914695	0.419586	0.808739
0	O	0.421208	0.106802	0.245782
0	O	0.601841	0.9122	0.245885
0	H	0.424451	0.137848	0.657325
0	H	0.598627	0.881042	0.657507
0	H	0.140093	0.596482	0.3975
0	H	0.883288	0.422964	0.396961
0	H	0.0970092	0.639421	0.896043
0	H	0.926443	0.379923	0.895533
0	H	0.381423	0.0950929	0.158874
0	H	0.641579	0.923952	0.158886
0	C	0.285046	0.0538873	0.928727
0	C	0.73799	0.965128	0.928661
0	C	0.0558126	0.735476	0.126502
0	C	0.967271	0.283719	0.126237
0	C	0.236521	0.555247	0.626622
0	C	0.786719	0.463809	0.626346
0	C	0.465732	0.234165	0.428287
0	C	0.557345	0.78481	0.428545
0	C	0.254133	0.013213	0.083463
0	C	0.768902	0.00585516	0.0833299
0	C	0.0148888	0.766315	0.971964
0	C	0.00818523	0.252762	0.971814
0	C	0.267616	0.514667	0.471986
0	C	0.755518	0.504389	0.471826
0	C	0.506556	0.265057	0.582919
0	C	0.516553	0.753909	0.5832
0	H	0.218315	0.971332	0.0311967
0	H	0.804703	0.0477401	0.0310106
0	H	0.972787	0.801884	0.024422
0	H	0.0501881	0.217112	0.0244116
0	H	0.303394	0.472751	0.524186
0	H	0.719649	0.546206	0.524128
0	H	0.548639	0.300689	0.530688
0	H	0.474464	0.718282	0.530971
0	C	0.209638	0.0634366	0.194482
0	C	0.813418	0.955681	0.194431
0	C	0.0651802	0.810811	0.861029
0	C	0.957854	0.208359	0.860791
0	C	0.312113	0.565015	0.361258
0	C	0.711118	0.454011	0.360977
0	C	0.456133	0.309402	0.693907
0	C	0.567001	0.709554	0.694095
0	H	0.187126	0.0342687	0.303204
0	H	0.835953	0.984901	0.303053
0	H	0.0358189	0.83326	0.75246
0	H	0.98721	0.185838	0.752294
0	H	0.334906	0.535852	0.252871
0	H	0.688268	0.483176	0.252654
0	H	0.485509	0.33205	0.802224
0	H	0.537656	0.686915	0.802463
0	H	0.244784	0.104716	0.248158
0	H	0.778288	0.914426	0.248262
0	H	0.106659	0.775916	0.807117
0	H	0.916459	0.243321	0.806756
0	H	0.27687	0.606101	0.307099
0	H	0.74643	0.413012	0.306695
0	H	0.414869	0.274344	0.748165
0	H	0.608291	0.744609	0.748263
0	C	0.150188	0.0985438	0.0922114
0	C	0.872843	0.920514	0.0921865
0	C	0.100356	0.870005	0.963535
0	C	0.922514	0.149252	0.963231
0	C	0.371277	0.600497	0.463752
0	C	0.652028	0.418372	0.463368
0	C	0.420535	0.368397	0.5916
0	C	0.60254	0.650545	0.591723
0	H	0.120356	0.135383	0.174941
0	H	0.902666	0.883692	0.174979
0	H	0.137214	0.8999	0.880863
0	H	0.885654	0.119404	0.880473
0	H	0.400883	0.637547	0.381098
0	H	0.622474	0.381323	0.380611
0	H	0.38345	0.397957	0.674398
0	H	0.639621	0.620951	0.674456
0	H	0.111661	0.0585243	0.0485147
0	H	0.91138	0.960503	0.0483529
0	H	0.0601054	0.90822	0.0076825
0	H	0.962657	0.110966	0.0075785
0	H	0.410026	0.560719	0.50757
0	H	0.613208	0.458044	0.50738
0	H	0.460488	0.406927	0.547529
0	H	0.562552	0.612042	0.547716
0	C	0.18103	0.138783	0.940395
0	C	0.841972	0.880211	0.940515
0	C	0.14095	0.83919	0.114933
0	C	0.881879	0.180183	0.114427
0	C	0.340119	0.640558	0.615455
0	C	0.683287	0.378263	0.614875
0	C	0.380125	0.337405	0.44016
0	C	0.642915	0.681526	0.440204
0	H	0.138107	0.163619	0.865803
0	H	0.884874	0.855311	0.865975
0	H	0.165907	0.8819	0.189633
0	H	0.856813	0.137535	0.189119
0	H	0.38283	0.665694	0.690124
0	H	0.640631	0.353013	0.6895
0	H	0.354814	0.379959	0.365695
0	H	0.668167	0.638959	0.365672
0	H	0.215039	0.182453	0.987524
0	H	0.807954	0.836577	0.987795
0	H	0.184794	0.805431	0.0673505
0	H	0.838105	0.213979	0.0666386
0	H	0.30582	0.683986	0.568225
0	H	0.717622	0.334905	0.567439
0	H	0.336555	0.303278	0.487706
0	H	0.686519	0.715633	0.487665
0	C	0.225329	0.0900403	0.826793
0	C	0.797672	0.9289	0.826782
0	C	0.0921928	0.794876	0.228536
0	C	0.930632	0.22445	0.228163
0	C	0.296095	0.59149	0.728834
0	C	0.727262	0.427317	0.728416
0	C	0.429218	0.293525	0.326421
0	C	0.593791	0.725428	0.326596
0	H	0.248468	0.120915	0.721338
0	H	0.7745	0.897969	0.721471
0	H	0.123338	0.771724	0.333607
0	H	0.899422	0.247737	0.332956
0	H	0.272889	0.622092	0.834663
0	H	0.750597	0.396635	0.833951
0	H	0.398352	0.270419	0.220842
0	H	0.624615	0.748514	0.220913
0	H	0.190709	0.0495484	0.768907
0	H	0.832287	0.969354	0.768711
0	H	0.0515672	0.829253	0.286933
0	H	0.971096	0.189993	0.28693
0	H	0.330901	0.551014	0.786187
0	H	0.692378	0.467643	0.786127
0	H	0.469781	0.3282	0.268784
0	H	0.553194	0.690764	0.269074
0	C	0.311467	0.977652	0.19053
0	C	0.711516	0.0413902	0.190288
0	C	0.979291	0.709185	0.864788
0	C	0.0439282	0.309801	0.86461
0	C	0.210377	0.479187	0.364484
0	C	0.812665	0.540025	0.364327
0	C	0.542181	0.207951	0.690137
0	C	0.480914	0.810961	0.690557
0	H	0.353903	0.0150569	0.224284
0	H	0.669178	0.00391583	0.224299
0	H	0.016889	0.666937	0.831162
0	H	0.00635964	0.352016	0.830561
0	H	0.16773	0.516506	0.331643
0	H	0.855271	0.50273	0.331031
0	H	0.504567	0.165718	0.723809
0	H	0.518467	0.853279	0.72402
0	H	0.336171	0.933012	0.12431
0	H	0.686677	0.0858933	0.123815
0	H	0.934466	0.68453	0.930893
0	H	0.0886733	0.33451	0.930899
0	H	0.185984	0.434204	0.429924
0	H	0.837114	0.584923	0.429982
0	H	0.587006	0.183329	0.624037
0	H	0.435965	0.835473	0.624715
0	H	0.289816	0.956511	0.309141
0	H	0.733147	0.0627039	0.308744
0	H	0.958124	0.730714	0.746086
0	H	0.0652288	0.288175	0.746141
0	H	0.23205	0.458611	0.245316
0	H	0.790888	0.560756	0.245416
0	H	0.563325	0.229552	0.808804
0	H	0.459927	0.789334	0.809353
0	C	0.333556	0.00555247	0.816968
0	C	0.689498	0.0134281	0.816758
0	C	0.00728915	0.687162	0.238303
0	C	0.0158919	0.331897	0.238163
0	C	0.187911	0.506984	0.738252
0	C	0.835182	0.512167	0.738142
0	C	0.514253	0.185953	0.316248
0	C	0.508808	0.833066	0.316662
0	H	0.378654	0.989157	0.901894
0	H	0.644411	0.029897	0.901625
0	H	0.990706	0.642307	0.153338
0	H	0.0326128	0.376701	0.153183
0	H	0.142693	0.490857	0.653385
0	H	0.880362	0.528443	0.653306
0	H	0.530766	0.140979	0.400963
0	H	0.492372	0.878038	0.401476
0	C	0.368661	0.0450763	0.666763
0	C	0.654351	0.973859	0.666689
0	C	0.0469621	0.652057	0.388309
0	C	0.976251	0.367102	0.388072
0	C	0.152964	0.546597	0.888579
0	C	0.870213	0.472586	0.8884
0	C	0.474527	0.150969	0.166102
0	C	0.548503	0.868013	0.166404
0	H	0.328487	0.0726219	0.587327
0	H	0.694506	0.946312	0.587191
0	H	0.0746338	0.691988	0.467954
0	H	0.948387	0.327244	0.467531
0	H	0.193129	0.574372	0.967564
0	H	0.830119	0.444599	0.967133
0	H	0.446554	0.190866	0.0870016
0	H	0.576469	0.828089	0.0873768
0	C	0.416783	0.998651	0.55944
0	C	0.60617	0.0202339	0.559387
0	C	0.000348155	0.604029	0.495386
0	C	0.0229835	0.414926	0.495399
0	C	0.105045	0.500229	0.996447
0	C	0.917933	0.519056	0.996537
0	C	0.521157	0.10325	0.0583592
0	C	0.50183	0.915683	0.0586511
0	H	0.437857	0.0283465	0.449842
0	H	0.585054	0.990489	0.449917
0	H	0.0301422	0.583018	0.604997
0	H	0.993157	0.436123	0.604748
0	H	0.0839779	0.530009	0.105949
0	H	0.939181	0.489229	0.105769
0	H	0.491263	0.0821403	0.948998
0	H	0.531688	0.93676	0.949193
0	H	0.389184	0.952212	0.509487
0	H	0.633746	0.0666441	0.509215
0	H	0.953666	0.63145	0.54531
0	H	0.0694634	0.387268	0.545679
0	H	0.132753	0.453933	0.0466682
0	H	0.890009	0.565142	0.0471631
0	H	0.567559	0.13092	0.00793571
0	H	0.455403	0.887998	0.00842675
0	H	0.46264	0.980072	0.632904
0	H	0.560332	0.0388265	0.6329
0	H	0.981802	0.558365	0.421752
0	H	0.041843	0.460477	0.421812
0	H	0.0591743	0.48145	0.923269
0	H	0.963685	0.538149	0.923396
0	H	0.540102	0.0576419	0.131673
0	H	0.482903	0.961309	0.131927
0	C	0.295022	0.940645	0.754913
0	C	0.728094	0.0782701	0.754502
0	C	0.942238	0.725675	0.300588
0	C	0.0808306	0.293232	0.300571
0	C	0.226117	0.441835	0.79997
0	C	0.796814	0.577194	0.800012
0	C	0.579386	0.2244	0.254238
0	C	0.4436	0.794703	0.254811
0	C	0.309634	0.874833	0.829062
0	C	0.713743	0.144096	0.828866
0	C	0.876133	0.71143	0.22631
0	C	0.147028	0.307536	0.226798
0	C	0.210648	0.37607	0.726602
0	C	0.812304	0.643055	0.727145
0	C	0.645471	0.209813	0.328295
0	C	0.37752	0.809583	0.328569
0	H	0.347512	0.870904	0.933505
0	H	0.676039	0.148083	0.933653
0	H	0.872055	0.673796	0.121719
0	H	0.151254	0.345314	0.122552
0	H	0.172143	0.372324	0.623398
0	H	0.850923	0.646958	0.624226
0	H	0.64946	0.17185	0.432248
0	H	0.373583	0.847738	0.432135
0	C	0.275323	0.814093	0.771498
0	C	0.74809	0.204777	0.771033
0	C	0.815278	0.745829	0.283903
0	C	0.20779	0.272997	0.284463
0	C	0.244767	0.315118	0.783575
0	C	0.77804	0.703904	0.784255
0	C	0.706406	0.244192	0.271128
0	C	0.316519	0.775264	0.271635
0	H	0.287082	0.763214	0.829784
0	H	0.736532	0.255668	0.829494
0	H	0.76417	0.734345	0.225515
0	H	0.258964	0.284511	0.226427
0	H	0.232369	0.264281	0.725847
0	H	0.79044	0.754813	0.726885
0	H	0.757489	0.232485	0.329413
0	H	0.265442	0.787196	0.329679
0	C	0.225891	0.818117	0.639755
0	C	0.797285	0.200671	0.638795
0	C	0.819487	0.794992	0.415778
0	C	0.203406	0.223651	0.415902
0	C	0.294821	0.318884	0.914008
0	C	0.727832	0.699942	0.914308
0	C	0.702316	0.293616	0.139802
0	C	0.320525	0.725589	0.140839
0	H	0.199337	0.770406	0.595963
0	H	0.823864	0.24833	0.594757
0	H	0.771675	0.821591	0.459633
0	H	0.251144	0.196934	0.459812
0	H	0.32129	0.271026	0.957164
0	H	0.701241	0.747715	0.957569
0	H	0.750166	0.320268	0.0964099
0	H	0.272616	0.698979	0.0976689
0	C	0.210982	0.883445	0.565614
0	C	0.811947	0.13532	0.564491
0	C	0.885127	0.809549	0.490014
0	C	0.137679	0.20905	0.489629
0	C	0.310464	0.384147	0.987644
0	C	0.712177	0.634585	0.98743
0	C	0.636731	0.308406	0.0655786
0	C	0.38609	0.710522	0.0668496
0	H	0.172458	0.88714	0.462879
0	H	0.850284	0.131564	0.461354
0	H	0.88899	0.84788	0.59281
0	H	0.133686	0.17057	0.592068
0	H	0.349433	0.38762	0.0894402
0	H	0.673078	0.630965	0.0889041
0	H	0.632992	0.346895	0.963112
0	H	0.389761	0.67184	0.964801
0	C	0.245446	0.944286	0.622383
0	C	0.777464	0.0745419	0.621538
0	C	0.946066	0.774978	0.433274
0	C	0.0768215	0.243743	0.432813
0	C	0.276186	0.445187	0.931491
0	C	0.746584	0.573638	0.931146
0	C	0.575696	0.27388	0.121926
0	C	0.447195	0.745005	0.122963
0	H	0.233588	0.994793	0.562677
0	H	0.789128	0.0240113	0.561722
0	H	0.996816	0.786551	0.493066
0	H	0.0259984	0.232115	0.492176
0	H	0.288556	0.495636	0.990876
0	H	0.734193	0.523106	0.990087
0	H	0.524999	0.285588	0.0620698
0	H	0.497873	0.733075	0.0632716
