#******************************************
#
# CIF file created by Zeo++
# Zeo++ is an open source package to
# analyze microporous materials
#
#*******************************************

_cell_length_a		11.8223(0)
_cell_length_b		9.16496(0)
_cell_length_c		17.1224(0)
_cell_angle_alpha		90(0)
_cell_angle_beta		93.6247(0)
_cell_angle_gamma		90(0)

_symmetry_space_group_name_H-M		'P1'
_symmetry_Int_Tables_number		1
_symmetry_cell_setting		Monoclinic

loop_
_symmetry_equiv_pos_as_xyz
'+x,+y,+z'

loop_
_atom_site_label
_atom_site_type_symbol
_atom_site_fract_x
_atom_site_fract_y
_atom_site_fract_z
0	O	0.0872804	0.873297	0.0419104
0	O	0.0362159	0.372898	0.0122193
0	O	0.0222559	0.796509	0.153539
0	O	0.105353	0.299263	0.901314
0	O	0.469636	0.115499	0.14561
0	O	0.656814	0.607776	0.909262
0	O	0.57199	0.32004	0.0586668
0	O	0.558803	0.819392	0.992781
0	C	0.793883	0.04205	0.0653019
0	C	0.333981	0.542272	0.989979
0	C	0.779508	0.060626	0.974818
0	C	0.348282	0.563522	0.0802487
0	C	0.874181	0.984127	0.933606
0	C	0.251377	0.492019	0.121392
0	C	0.87892	0.820844	0.952404
0	C	0.242855	0.328387	0.103954
0	C	0.887268	0.787933	0.041354
0	C	0.237084	0.290916	0.0155327
0	C	0.79421	0.874458	0.0818283
0	C	0.331945	0.374038	0.97506
0	C	0.790431	0.841133	0.169395
0	C	0.33586	0.337595	0.887851
0	C	0.679947	0.899908	0.198884
0	C	0.446334	0.394649	0.857641
0	C	0.669517	0.0652364	0.186695
0	C	0.457568	0.56023	0.86838
0	C	0.687005	0.110414	0.101025
0	C	0.441389	0.608221	0.953841
0	C	0.683379	0.278517	0.0894953
0	C	0.446605	0.776594	0.96431
0	C	0.714078	0.375844	0.161475
0	C	0.41371	0.871795	0.891897
0	C	0.693237	0.305492	0.240741
0	C	0.435231	0.799563	0.813199
0	C	0.749882	0.153712	0.244017
0	C	0.377828	0.648202	0.810487
0	C	0.550031	0.116629	0.212556
0	C	0.577285	0.609324	0.841971
0	C	0.56841	0.269803	0.245232
0	C	0.560132	0.762961	0.809655
0	C	0.489748	0.353593	0.274435
0	C	0.639858	0.846525	0.781609
0	C	0.00690394	0.825753	0.0745882
0	C	0.118104	0.3275	0.980428
0	C	0.872142	0.623068	0.0529121
0	C	0.251018	0.125201	0.00649718
0	C	0.903067	0.119198	0.0956244
0	C	0.225166	0.619418	0.958916
0	O	0.999258	0.991581	0.37633
0	O	0.132639	0.489947	0.675515
0	O	0.549299	0.815717	0.574483
0	O	0.580636	0.31411	0.478471
0	O	0.538351	0.615737	0.452985
0	O	0.592685	0.115616	0.60037
0	O	0.0409372	0.985718	0.251378
0	O	0.0891844	0.483712	0.800185
0	C	0.260359	0.00756496	0.404971
0	C	0.871325	0.507662	0.645902
0	C	0.186266	0.0857945	0.339326
0	C	0.945911	0.58636	0.71116
0	C	0.247874	0.0817682	0.262376
0	C	0.883089	0.585434	0.787576
0	C	0.285043	0.927997	0.240151
0	C	0.845467	0.432441	0.81092
0	C	0.356072	0.854038	0.306727
0	C	0.775434	0.355593	0.744858
0	C	0.294152	0.847767	0.3842
0	C	0.837279	0.348225	0.667327
0	C	0.379647	0.790277	0.451174
0	C	0.751368	0.289906	0.600803
0	C	0.339909	0.812254	0.535381
0	C	0.79041	0.310832	0.516331
0	C	0.296258	0.967106	0.548819
0	C	0.834001	0.465516	0.502305
0	C	0.207768	0.0133281	0.484636
0	C	0.923142	0.512343	0.565963
0	C	0.358706	0.509241	0.480379
0	C	0.771943	0.00835372	0.572354
0	C	0.329165	0.556384	0.562771
0	C	0.800697	0.054587	0.489656
0	C	0.253197	0.693239	0.555102
0	C	0.876752	0.191477	0.496456
0	C	0.436245	0.611162	0.607203
0	C	0.69328	0.109128	0.44555
0	C	0.439558	0.776477	0.598412
0	C	0.690036	0.274557	0.453934
0	C	0.191116	0.746387	0.372259
0	C	0.940035	0.246425	0.679296
0	C	0.0682151	0.0166789	0.328671
0	C	0.0632693	0.515441	0.722804
0	C	0.164565	0.246047	0.360957
0	C	0.970091	0.745513	0.688671
0	C	0.514341	0.53005	0.645713
0	C	0.614927	0.02775	0.407508
0	C	0.417131	0.63077	0.435586
0	C	0.714058	0.130531	0.617021
0	H	0.0980934	0.834096	0.177367
0	H	0.0296859	0.335246	0.876607
0	H	0.695763	0.0165826	0.953211
0	H	0.430944	0.517284	0.102627
0	H	0.777605	0.178038	0.959701
0	H	0.352564	0.681417	0.0943742
0	H	0.394634	0.1515	0.161038
0	H	0.735574	0.610996	0.892878
0	H	0.861361	0.99987	0.86961
0	H	0.263671	0.509331	0.185305
0	H	0.957331	0.0349181	0.951182
0	H	0.169653	0.545617	0.102957
0	H	0.513457	0.26146	0.0848184
0	H	0.616795	0.764746	0.964141
0	H	0.95169	0.77034	0.924646
0	H	0.167511	0.282546	0.130805
0	H	0.801094	0.767161	0.92611
0	H	0.318284	0.272424	0.132479
0	H	0.711303	0.83208	0.0535801
0	H	0.413957	0.330877	0.00412506
0	H	0.796674	0.722019	0.180058
0	H	0.329317	0.218153	0.878437
0	H	0.864832	0.889404	0.20331
0	H	0.26152	0.385139	0.853493
0	H	0.674163	0.871863	0.261344
0	H	0.451655	0.364704	0.795396
0	H	0.606938	0.845067	0.166815
0	H	0.519305	0.340269	0.890066
0	H	0.611336	0.0645901	0.0651938
0	H	0.516956	0.562149	0.989721
0	H	0.736328	0.311936	0.0406299
0	H	0.395738	0.811471	0.0139949
0	H	0.804375	0.407665	0.161082
0	H	0.323115	0.901721	0.892427
0	H	0.664268	0.478205	0.154182
0	H	0.462272	0.975233	0.898192
0	H	0.725091	0.376912	0.289749
0	H	0.404293	0.870161	0.763609
0	H	0.754823	0.107283	0.303502
0	H	0.373102	0.600902	0.751181
0	H	0.837619	0.156368	0.225468
0	H	0.289943	0.651919	0.828722
0	H	0.517082	0.0414524	0.257079
0	H	0.609004	0.534043	0.797212
0	H	0.507428	0.461136	0.298303
0	H	0.623486	0.954532	0.758116
0	H	0.402186	0.321011	0.277629
0	H	0.727477	0.8129	0.779438
0	H	0.786562	0.587083	0.0325743
0	H	0.336243	0.0885213	0.0270923
0	H	0.884692	0.592087	0.114901
0	H	0.237796	0.0909846	0.945057
0	H	0.933032	0.558242	0.0213865
0	H	0.189719	0.0628532	0.0390383
0	H	0.899162	0.237595	0.0850723
0	H	0.229483	0.737931	0.968604
0	H	0.977175	0.0833123	0.0654104
0	H	0.150729	0.584757	0.989143
0	H	0.920938	0.103509	0.158783
0	H	0.207465	0.60212	0.895841
0	H	0.560259	0.927128	0.575899
0	H	0.569583	0.425071	0.477013
0	H	0.563527	0.681908	0.498098
0	H	0.566899	0.181834	0.555409
0	H	0.341541	0.0718471	0.41063
0	H	0.790297	0.572274	0.64028
0	H	0.191365	0.127664	0.214091
0	H	0.938761	0.633065	0.835846
0	H	0.322758	0.155285	0.268998
0	H	0.808327	0.659303	0.779729
0	H	0.334315	0.932738	0.186993
0	H	0.795502	0.439357	0.863762
0	H	0.208535	0.860843	0.22297
0	H	0.921712	0.365685	0.829388
0	H	0.437864	0.913029	0.316307
0	H	0.692853	0.412495	0.734718
0	H	0.379202	0.742263	0.288894
0	H	0.753689	0.243737	0.763558
0	H	0.458621	0.858471	0.448735
0	H	0.672433	0.358229	0.603304
0	H	0.368281	0.0451141	0.551604
0	H	0.761969	0.543539	0.499659
0	H	0.259675	0.974506	0.606664
0	H	0.869941	0.472419	0.444251
0	H	0.177017	0.124614	0.496883
0	H	0.953723	0.623505	0.553171
0	H	0.131596	0.942511	0.484336
0	H	0.999248	0.441471	0.566159
0	H	0.415995	0.412672	0.484496
0	H	0.714706	0.911776	0.56881
0	H	0.280986	0.472806	0.446497
0	H	0.849941	0.97216	0.606013
0	H	0.287652	0.466704	0.59401
0	H	0.84181	0.964452	0.458507
0	H	0.183286	0.682088	0.509816
0	H	0.947227	0.18075	0.541333
0	H	0.212857	0.715561	0.61023
0	H	0.916237	0.213071	0.440927
0	H	0.426943	0.83183	0.655134
0	H	0.701856	0.329607	0.397018
0	H	0.136284	0.753869	0.421825
0	H	0.99435	0.252922	0.629405
0	H	0.215896	0.631824	0.367278
0	H	0.914935	0.132045	0.684743
0	H	0.13913	0.77145	0.318723
0	H	0.992564	0.27162	0.732536
0	H	0.244185	0.303703	0.376845
0	H	0.891418	0.805275	0.672714
0	H	0.112193	0.254592	0.411622
0	H	0.0223855	0.75156	0.637837
0	H	0.120939	0.305819	0.312409
0	H	0.0150488	0.804903	0.736828
0	H	0.508645	0.412593	0.650223
0	H	0.620558	0.910211	0.403366
0	H	0.589901	0.576871	0.674624
0	H	0.539156	0.0741918	0.378623
0	H	0.410194	0.606382	0.371456
0	H	0.721741	0.106708	0.681193
0	H	0.963721	0.935714	0.240003
0	H	0.166079	0.433393	0.812045
