#******************************************
#
# CIF file created by Zeo++
# Zeo++ is an open source package to
# analyze microporous materials
#
#*******************************************

_cell_length_a		20.5087(0)
_cell_length_b		20.5402(0)
_cell_length_c		10.4146(0)
_cell_angle_alpha		90(0)
_cell_angle_beta		90(0)
_cell_angle_gamma		90(0)

_symmetry_space_group_name_H-M		'P1'
_symmetry_Int_Tables_number		1
_symmetry_cell_setting		Monoclinic

loop_
_symmetry_equiv_pos_as_xyz
'+x,+y,+z'

loop_
_atom_site_label
_atom_site_type_symbol
_atom_site_fract_x
_atom_site_fract_y
_atom_site_fract_z
0	C	0.732802	0.894956	0.336024
0	C	0.267727	0.101281	0.351805
0	C	0.102507	0.731375	0.343943
0	C	0.897338	0.266928	0.343959
0	C	0.23235	0.396843	0.844395
0	C	0.7674	0.601523	0.843817
0	C	0.60248	0.231727	0.843989
0	C	0.39733	0.766468	0.843996
0	C	0.661341	0.872391	0.328986
0	C	0.33899	0.124185	0.34242
0	C	0.125279	0.660117	0.335715
0	C	0.874583	0.338193	0.335753
0	C	0.160957	0.374192	0.836337
0	C	0.838746	0.624309	0.835631
0	C	0.62525	0.160469	0.835848
0	C	0.374645	0.837758	0.835989
0	C	0.614868	0.884674	0.228659
0	C	0.384514	0.112144	0.240272
0	C	0.113096	0.614193	0.234469
0	C	0.886774	0.384137	0.234536
0	C	0.114928	0.386379	0.73517
0	C	0.884835	0.612093	0.734596
0	C	0.613009	0.114474	0.734747
0	C	0.386984	0.883789	0.735004
0	C	0.627915	0.927285	0.124322
0	C	0.37071	0.0695902	0.136176
0	C	0.0704629	0.627608	0.130227
0	C	0.929424	0.37075	0.13031
0	C	0.128393	0.428853	0.630787
0	C	0.871452	0.5695	0.630381
0	C	0.570449	0.127914	0.630407
0	C	0.429538	0.870327	0.630666
0	H	0.67589	0.950391	0.117403
0	H	0.322933	0.0459526	0.131223
0	H	0.0470201	0.675398	0.124327
0	H	0.952882	0.322967	0.124417
0	H	0.176254	0.452231	0.624903
0	H	0.823619	0.546068	0.624548
0	H	0.54706	0.17569	0.624495
0	H	0.452818	0.822501	0.624676
0	C	0.580679	0.940251	0.0334741
0	C	0.416883	0.0575346	0.0427559
0	C	0.0580007	0.580997	0.0379986
0	C	0.941861	0.417368	0.0380747
0	C	0.0817845	0.4412	0.538376
0	C	0.9181	0.557129	0.538056
0	C	0.558036	0.0813506	0.538054
0	C	0.442037	0.9169	0.538368
0	H	0.590903	0.973183	0.953743
0	H	0.405976	0.0248716	0.962935
0	H	0.0251874	0.591563	0.958173
0	H	0.97468	0.406825	0.958246
0	H	0.0924033	0.473839	0.45836
0	H	0.907534	0.524422	0.458133
0	H	0.525322	0.0919341	0.458109
0	H	0.474689	0.906263	0.458352
0	C	0.518489	0.910977	0.0433966
0	C	0.478879	0.0874391	0.0500633
0	C	0.0876462	0.518998	0.0465788
0	C	0.912152	0.479336	0.0466214
0	C	0.0196709	0.411643	0.546969
0	C	0.980188	0.586744	0.546674
0	C	0.587613	0.0193209	0.546663
0	C	0.412575	0.978976	0.547161
0	H	0.481296	0.922041	0.971725
0	H	0.515289	0.0769438	0.976527
0	H	0.0768934	0.482269	0.97391
0	H	0.922869	0.516059	0.973916
0	H	0.98295	0.422306	0.474145
0	H	0.0169416	0.576052	0.473931
0	H	0.576902	0.98266	0.473889
0	H	0.42334	0.0156757	0.474457
0	C	0.504969	0.868954	0.143388
0	C	0.493158	0.129321	0.149864
0	C	0.129612	0.505097	0.146547
0	C	0.870165	0.49321	0.146566
0	C	0.00568009	0.369892	0.647133
0	C	0.994122	0.628564	0.646773
0	C	0.629431	0.00534624	0.646849
0	C	0.370756	0.992971	0.647357
0	H	0.456739	0.846459	0.150618
0	H	0.541232	0.1523	0.155087
0	H	0.152371	0.457009	0.152775
0	H	0.847344	0.541271	0.152754
0	H	0.957499	0.347219	0.653386
0	H	0.0422967	0.651247	0.653082
0	H	0.652115	0.957229	0.653104
0	H	0.348172	0.0411361	0.653732
0	C	0.552781	0.854444	0.237891
0	C	0.446277	0.14319	0.246574
0	C	0.143787	0.552358	0.242214
0	C	0.856034	0.445949	0.242252
0	C	0.0529735	0.35579	0.742936
0	C	0.946764	0.642745	0.742393
0	C	0.643592	0.0525886	0.742594
0	C	0.35646	0.945701	0.74295
0	C	0.53985	0.808086	0.340978
0	C	0.459624	0.190016	0.348611
0	C	0.190447	0.539225	0.344775
0	C	0.809365	0.459064	0.344802
0	C	0.0398098	0.309254	0.845584
0	C	0.959836	0.689398	0.844894
0	C	0.690216	0.0394325	0.845216
0	C	0.309803	0.958864	0.845524
0	C	0.481777	0.770354	0.342008
0	C	0.517436	0.228165	0.347043
0	C	0.228429	0.481356	0.344507
0	C	0.771362	0.516921	0.344528
0	C	0.981788	0.271421	0.845455
0	C	0.0178902	0.727186	0.845002
0	C	0.727908	0.981398	0.845391
0	C	0.27212	0.0169017	0.845731
0	H	0.444633	0.779542	0.2687
0	H	0.554159	0.218742	0.272995
0	H	0.21909	0.444475	0.270847
0	H	0.7807	0.553806	0.270866
0	H	0.944739	0.280916	0.772042
0	H	0.0550262	0.717628	0.771802
0	H	0.718223	0.944242	0.772392
0	H	0.281695	0.0539714	0.772511
0	C	0.471941	0.722165	0.432318
0	C	0.527536	0.277011	0.435838
0	C	0.277026	0.47139	0.434051
0	C	0.722756	0.526866	0.434054
0	C	0.971862	0.222756	0.934704
0	C	0.0277539	0.775834	0.934323
0	C	0.776734	0.971532	0.934581
0	C	0.223413	0.0268684	0.935134
0	H	0.427195	0.693546	0.431387
0	H	0.572069	0.305925	0.432979
0	H	0.305809	0.426795	0.432173
0	H	0.693937	0.571435	0.432154
0	H	0.927184	0.194014	0.932805
0	H	0.0725045	0.80447	0.932755
0	H	0.80533	0.926803	0.932966
0	H	0.19483	0.0716098	0.933505
0	C	0.520509	0.709106	0.524994
0	C	0.479469	0.290339	0.529379
0	C	0.290268	0.519637	0.527144
0	C	0.709528	0.478613	0.527134
0	C	0.0202714	0.209344	0.0275016
0	C	0.97919	0.789386	0.0267342
0	C	0.790453	0.0200551	0.0267852
0	C	0.209763	0.978418	0.0275157
0	H	0.513307	0.66965	0.593262
0	H	0.486811	0.330348	0.59631
0	H	0.330065	0.512366	0.594742
0	H	0.669723	0.48587	0.594715
0	H	0.0130133	0.169435	0.094762
0	H	0.986424	0.829277	0.0940465
0	H	0.830478	0.0128734	0.0939429
0	H	0.169853	0.985685	0.0948915
0	C	0.576805	0.745959	0.527795
0	C	0.423526	0.25303	0.534829
0	C	0.25314	0.575681	0.53127
0	C	0.746656	0.422568	0.531247
0	C	0.0763838	0.246439	0.0317332
0	C	0.922991	0.752423	0.0305878
0	C	0.753408	0.0761924	0.0307751
0	C	0.246648	0.922176	0.031216
0	H	0.615159	0.734366	0.596754
0	H	0.385572	0.264724	0.604558
0	H	0.264821	0.613777	0.600602
0	H	0.734975	0.384456	0.600536
0	H	0.114544	0.234694	0.100993
0	H	0.884688	0.764248	0.0994942
0	H	0.765313	0.114377	0.0997782
0	H	0.234656	0.883961	0.10008
0	C	0.586675	0.797632	0.439268
0	C	0.413455	0.200636	0.448095
0	C	0.201015	0.58565	0.443664
0	C	0.798795	0.412625	0.443654
0	C	0.0863578	0.298592	0.944318
0	C	0.913175	0.700173	0.943355
0	C	0.701069	0.086045	0.94368
0	C	0.298898	0.912242	0.943934
0	C	0.645219	0.836588	0.437059
0	C	0.355269	0.161119	0.448915
0	C	0.161727	0.643934	0.442976
0	C	0.838096	0.35435	0.442976
0	C	0.144778	0.337746	0.94357
0	C	0.854853	0.660893	0.942716
0	C	0.661804	0.144352	0.942993
0	C	0.338051	0.853864	0.943086
0	C	0.699256	0.841408	0.530003
0	C	0.301428	0.156937	0.542632
0	C	0.157293	0.697815	0.536269
0	C	0.84254	0.300469	0.536258
0	C	0.198826	0.342052	0.0367281
0	C	0.800876	0.656489	0.0359639
0	C	0.657434	0.19828	0.0362231
0	C	0.342307	0.799885	0.0361939
0	C	0.701904	0.826094	0.665099
0	C	0.298486	0.173377	0.677156
0	C	0.173263	0.700616	0.671053
0	C	0.826567	0.297677	0.671037
0	C	0.201723	0.325986	0.17146
0	C	0.798095	0.672417	0.170754
0	C	0.673432	0.201135	0.17101
0	C	0.326229	0.797015	0.170941
0	C	0.645176	0.819296	0.742134
0	C	0.355126	0.181125	0.754027
0	C	0.180503	0.64402	0.74803
0	C	0.819311	0.354275	0.748015
0	C	0.145087	0.318752	0.248549
0	C	0.854794	0.679667	0.247675
0	C	0.68075	0.144557	0.247993
0	C	0.318969	0.853581	0.247996
0	H	0.597537	0.828914	0.699354
0	H	0.40287	0.172165	0.711155
0	H	0.171154	0.596401	0.705238
0	H	0.828653	0.401894	0.70521
0	H	0.0973975	0.328185	0.205839
0	H	0.902462	0.670446	0.204714
0	H	0.671487	0.0969404	0.205151
0	H	0.328304	0.901199	0.205205
0	C	0.649996	0.802835	0.870289
0	C	0.350097	0.197528	0.882187
0	C	0.196951	0.648941	0.876195
0	C	0.802851	0.349356	0.876169
0	C	0.150068	0.302212	0.376642
0	C	0.849892	0.695945	0.375909
0	C	0.697173	0.149498	0.376167
0	C	0.302556	0.848626	0.376162
0	H	0.606457	0.797951	0.92974
0	H	0.393566	0.203011	0.941618
0	H	0.202088	0.605501	0.935654
0	H	0.797703	0.39279	0.935639
0	H	0.106578	0.297101	0.436159
0	H	0.893411	0.701078	0.435345
0	H	0.702361	0.106063	0.435623
0	H	0.297416	0.89205	0.435674
0	C	0.711982	0.792754	0.92623
0	C	0.287994	0.20676	0.938138
0	C	0.206672	0.71089	0.932117
0	C	0.793137	0.287403	0.932078
0	C	0.212129	0.29235	0.432397
0	C	0.787853	0.705528	0.431928
0	C	0.70684	0.211462	0.432077
0	C	0.292857	0.786658	0.432018
0	H	0.715056	0.776921	0.0261528
0	H	0.284681	0.222268	0.0382097
0	H	0.222345	0.714078	0.0321288
0	H	0.777449	0.284212	0.0320772
0	H	0.215342	0.276574	0.532349
0	H	0.784686	0.721091	0.532019
0	H	0.722522	0.214663	0.532109
0	H	0.277203	0.783449	0.532061
0	C	0.767762	0.80339	0.855067
0	C	0.232334	0.195752	0.866837
0	C	0.1959	0.766525	0.860842
0	C	0.803927	0.231769	0.86082
0	C	0.267828	0.303112	0.361046
0	C	0.732118	0.694794	0.360692
0	C	0.696031	0.267089	0.360784
0	C	0.30361	0.731038	0.360678
0	H	0.815659	0.796772	0.899221
0	H	0.184357	0.20193	0.91083
0	H	0.202357	0.814389	0.904893
0	H	0.797473	0.183904	0.90486
0	H	0.315792	0.296557	0.404986
0	H	0.68418	0.701165	0.404802
0	H	0.702468	0.314972	0.404824
0	H	0.297164	0.68315	0.404684
0	C	0.76416	0.822808	0.724233
0	C	0.236121	0.17636	0.736078
0	C	0.176452	0.762837	0.730054
0	C	0.823394	0.235459	0.730037
0	C	0.264061	0.322685	0.230339
0	C	0.735798	0.675496	0.229827
0	C	0.676584	0.263361	0.229993
0	C	0.323047	0.734783	0.229876
0	C	0.822268	0.84222	0.652989
0	C	0.178004	0.156602	0.665168
0	C	0.156819	0.820858	0.658983
0	C	0.843051	0.177438	0.658999
0	C	0.322123	0.342335	0.159148
0	C	0.677707	0.65588	0.158707
0	C	0.656937	0.321348	0.158813
0	C	0.342741	0.676808	0.158713
0	C	0.885494	0.836946	0.707691
0	C	0.114567	0.162471	0.718645
0	C	0.162393	0.884092	0.713093
0	C	0.837485	0.114211	0.713131
0	C	0.385496	0.336676	0.213059
0	C	0.614359	0.661439	0.212741
0	C	0.662562	0.384617	0.212765
0	C	0.337156	0.613542	0.212676
0	H	0.8909	0.814832	0.802668
0	H	0.108879	0.184993	0.813138
0	H	0.184727	0.889629	0.807853
0	H	0.815152	0.108688	0.807889
0	H	0.391113	0.314206	0.307637
0	H	0.608791	0.683815	0.307405
0	H	0.685027	0.390215	0.307388
0	H	0.314693	0.607941	0.307294
0	C	0.939931	0.858592	0.642406
0	C	0.0602434	0.141009	0.652735
0	C	0.14081	0.938393	0.647497
0	C	0.859045	0.0599002	0.647551
0	C	0.439851	0.358326	0.147472
0	C	0.559975	0.639821	0.147231
0	C	0.640893	0.438898	0.147196
0	C	0.358863	0.559267	0.147134
0	H	0.98832	0.853841	0.684921
0	H	0.0116899	0.146439	0.694202
0	H	0.145876	0.986785	0.689543
0	H	0.853956	0.0115167	0.689595
0	H	0.48836	0.353222	0.189341
0	H	0.511484	0.644928	0.189181
0	H	0.646009	0.48733	0.189092
0	H	0.353777	0.510838	0.18904
0	C	0.933337	0.886755	0.519251
0	C	0.0671034	0.112189	0.530225
0	C	0.112318	0.931691	0.524627
0	C	0.887532	0.066588	0.524663
0	C	0.43307	0.386957	0.0247753
0	C	0.566713	0.611228	0.0244918
0	C	0.612235	0.43214	0.0244835
0	C	0.387527	0.566039	0.0244238
0	H	0.976749	0.904069	0.46971
0	H	0.0237496	0.0951676	0.480053
0	H	0.0951201	0.975005	0.474773
0	H	0.904621	0.0232336	0.474769
0	H	0.476452	0.404183	0.974931
0	H	0.523313	0.59399	0.974737
0	H	0.59496	0.475462	0.974678
0	H	0.404824	0.522724	0.974635
0	C	0.872584	0.891692	0.463056
0	C	0.128098	0.106312	0.475485
0	C	0.106902	0.870905	0.469156
0	C	0.892992	0.127373	0.469197
0	C	0.372155	0.392411	0.969461
0	C	0.627601	0.605836	0.969044
0	C	0.60682	0.371326	0.96912
0	C	0.392929	0.626855	0.96905
0	H	0.867157	0.912293	0.367023
0	H	0.133828	0.0851387	0.379961
0	H	0.0860179	0.865329	0.373339
0	H	0.913898	0.132937	0.373399
0	H	0.366519	0.413372	0.873745
0	H	0.633212	0.584882	0.873325
0	H	0.585834	0.365708	0.873398
0	H	0.413923	0.632485	0.873336
0	C	0.816029	0.86889	0.527685
0	C	0.184489	0.129061	0.54079
0	C	0.129648	0.814505	0.534159
0	C	0.870226	0.183779	0.534173
0	C	0.315693	0.369613	0.0344446
0	C	0.684074	0.628691	0.0339305
0	C	0.629683	0.314945	0.0340573
0	C	0.370029	0.683222	0.0339848
0	C	0.752616	0.868686	0.469003
0	C	0.248103	0.128713	0.483212
0	C	0.12949	0.751076	0.476068
0	C	0.870352	0.247207	0.476069
0	C	0.252143	0.36982	0.976437
0	C	0.747585	0.628613	0.97579
0	C	0.629568	0.251503	0.975996
0	C	0.37018	0.746668	0.975949
0	C	0.73766	0.969318	0.336372
0	C	0.26274	0.0269704	0.352509
0	C	0.0280541	0.736254	0.344663
0	C	0.971787	0.262015	0.344672
0	C	0.237373	0.471176	0.845245
0	C	0.762487	0.527184	0.844993
0	C	0.528025	0.236653	0.845097
0	C	0.471775	0.761415	0.845002
0	H	0.724298	0.989594	0.242264
0	H	0.275835	0.00663572	0.258276
0	H	0.0076687	0.723151	0.250479
0	H	0.992174	0.275236	0.250546
0	H	0.224307	0.491617	0.751105
0	H	0.775644	0.506651	0.750987
0	H	0.507501	0.223614	0.751
0	H	0.492324	0.774527	0.750969
0	H	0.786933	0.986136	0.359792
0	H	0.213448	0.0102754	0.376193
0	H	0.0112397	0.78542	0.368489
0	H	0.988552	0.212804	0.368233
0	H	0.28667	0.487808	0.869111
0	H	0.713191	0.510524	0.86879
0	H	0.511333	0.285854	0.869038
0	H	0.488392	0.712167	0.868762
0	H	0.70458	0.990754	0.407886
0	H	0.295869	0.00546258	0.423811
0	H	0.00660719	0.703103	0.415971
0	H	0.993245	0.295064	0.416155
0	H	0.204198	0.492608	0.916606
0	H	0.795624	0.505868	0.916558
0	H	0.506652	0.203494	0.916485
0	H	0.493217	0.794462	0.916543
0	C	0.772695	0.863676	0.228444
0	C	0.22782	0.131993	0.24314
0	C	0.133439	0.771215	0.235692
0	C	0.866374	0.227113	0.235717
0	C	0.272153	0.365878	0.736084
0	C	0.727509	0.632309	0.735443
0	C	0.63336	0.271548	0.735647
0	C	0.366395	0.726734	0.735595
0	H	0.750066	0.871346	0.13417
0	H	0.250462	0.123802	0.149045
0	H	0.125462	0.748574	0.141554
0	H	0.874539	0.24964	0.141532
0	H	0.249534	0.373946	0.641917
0	H	0.750116	0.624193	0.641282
0	H	0.625319	0.248941	0.641492
0	H	0.37465	0.749254	0.641429
0	H	0.777092	0.810767	0.242985
0	H	0.223434	0.184976	0.256379
0	H	0.186469	0.775666	0.24945
0	H	0.813312	0.222879	0.249274
0	H	0.27642	0.312901	0.74983
0	H	0.723149	0.685288	0.749008
0	H	0.686408	0.275957	0.749353
0	H	0.313311	0.722569	0.749061
0	H	0.822229	0.883716	0.224785
0	H	0.178298	0.111904	0.239787
0	H	0.113273	0.820638	0.232167
0	H	0.886339	0.177603	0.232464
0	H	0.321714	0.385874	0.732631
0	H	0.677982	0.612228	0.732133
0	H	0.613206	0.320982	0.73219
0	H	0.38632	0.677201	0.732356
