#******************************************
#
# CIF file created by Zeo++
# Zeo++ is an open source package to
# analyze microporous materials
#
#*******************************************

_cell_length_a		10.9922(0)
_cell_length_b		11.4345(0)
_cell_length_c		16.9849(0)
_cell_angle_alpha		73.4646(0)
_cell_angle_beta		80.9739(0)
_cell_angle_gamma		76.4507(0)

_symmetry_space_group_name_H-M		'P1'
_symmetry_Int_Tables_number		1
_symmetry_cell_setting		Triclinic

loop_
_symmetry_equiv_pos_as_xyz
'+x,+y,+z'

loop_
_atom_site_label
_atom_site_type_symbol
_atom_site_fract_x
_atom_site_fract_y
_atom_site_fract_z
0	Cl	0.362683	0.340067	0.957341
0	Cl	0.613078	0.655708	0.0459258
0	O	0.883152	0.08516	0.816023
0	O	0.0715517	0.928217	0.193169
0	O	0.908781	0.389301	0.804281
0	O	0.0550853	0.627627	0.205119
0	O	0.200952	0.156637	0.638162
0	O	0.748042	0.85465	0.36695
0	O	0.171925	0.907988	0.920403
0	O	0.784079	0.105791	0.0856843
0	O	0.396443	0.746091	0.709812
0	O	0.552943	0.265167	0.295511
0	N	0.283878	0.827758	0.816733
0	N	0.668065	0.184401	0.188817
0	N	0.294757	0.95185	0.675891
0	N	0.654573	0.0593851	0.329214
0	N	0.939863	0.126659	0.929171
0	N	0.0158857	0.892208	0.0776966
0	H	0.867622	0.103251	0.972474
0	H	0.0901794	0.913584	0.0357278
0	C	0.221646	0.052005	0.703209
0	C	0.729088	0.959731	0.302068
0	C	0.204651	0.930153	0.846591
0	C	0.749333	0.0826667	0.159205
0	C	0.228617	0.24569	0.878384
0	C	0.734803	0.760428	0.126588
0	H	0.295208	0.268915	0.823851
0	H	0.668924	0.733691	0.180867
0	C	0.123608	0.263711	0.656368
0	C	0.828285	0.748474	0.349409
0	C	0.0866192	0.157144	0.806433
0	C	0.868902	0.855909	0.199845
0	C	0.0648608	0.266305	0.732012
0	C	0.890102	0.74693	0.27439
0	C	0.17359	0.0457523	0.783883
0	C	0.779561	0.966649	0.221741
0	C	0.12812	0.193655	0.876314
0	C	0.830866	0.8181	0.129306
0	C	0.0389769	0.172419	0.947337
0	C	0.91966	0.843731	0.05855
0	C	0.239382	0.271934	0.952824
0	C	0.727866	0.73357	0.0516833
0	C	0.118534	0.367437	0.579844
0	C	0.832151	0.644208	0.425596
0	H	0.209063	0.359308	0.539291
0	H	0.740606	0.651749	0.465037
0	H	0.0464801	0.363489	0.541862
0	H	0.902836	0.647795	0.464687
0	C	0.155353	0.248458	0.0232134
0	C	0.81034	0.763174	0.981172
0	H	0.168803	0.270113	0.07978
0	H	0.799063	0.741834	0.924049
0	C	0.978222	0.383483	0.74171
0	C	0.980061	0.631047	0.265633
0	C	0.957247	0.118264	0.846643
0	C	0.998158	0.896584	0.161175
0	C	0.0520902	0.197526	0.0208428
0	C	0.909187	0.819509	0.984245
0	H	0.983976	0.179267	0.0745942
0	H	0.976328	0.842139	0.930514
0	C	0.331113	0.833071	0.733864
0	C	0.619054	0.178552	0.271429
0	C	0.313564	0.704656	0.877685
0	C	0.63858	0.307614	0.127934
0	H	0.37147	0.633412	0.847473
0	H	0.58121	0.378984	0.158245
0	H	0.22554	0.673268	0.906924
0	H	0.726712	0.338661	0.0985248
0	H	0.365104	0.712921	0.926027
0	H	0.586442	0.299752	0.0797599
0	C	0.972465	0.495985	0.667962
0	C	0.981531	0.516863	0.337933
0	H	0.88615	0.505782	0.638228
0	H	0.0667654	0.503928	0.369608
0	H	0.958005	0.580986	0.690564
0	H	0.995761	0.433478	0.313605
0	C	0.35668	0.972252	0.590048
0	C	0.593265	0.0390961	0.415201
0	H	0.287245	0.0259857	0.54588
0	H	0.662573	0.983549	0.459061
0	H	0.396479	0.881502	0.575528
0	H	0.555514	0.129836	0.430129
0	H	0.432799	0.024315	0.58338
0	H	0.515559	0.988922	0.421837
0	C	0.0879402	0.490416	0.605098
0	C	0.864403	0.521839	0.399498
0	H	0.170542	0.500056	0.632063
0	H	0.782654	0.512565	0.371486
0	H	0.0733225	0.569807	0.549796
0	H	0.877958	0.441899	0.454581
0	Cl	0.954704	0.858045	0.480007
0	Cl	0.982197	0.162726	0.519286
0	O	0.43488	0.921861	0.329295
0	O	0.499601	0.096555	0.682303
0	O	0.336832	0.439303	0.42018
0	O	0.602547	0.57477	0.588741
0	O	0.257407	0.323047	0.198904
0	O	0.699446	0.690378	0.804987
0	O	0.616079	0.608698	0.317245
0	O	0.327725	0.401914	0.699206
0	O	0.37101	0.702879	0.142277
0	O	0.61062	0.299489	0.86372
0	N	0.492473	0.636058	0.437024
0	N	0.445503	0.380276	0.576301
0	H	0.556744	0.598882	0.479708
0	H	0.377634	0.413868	0.535996
0	N	0.285989	0.387147	0.311876
0	N	0.664117	0.625692	0.693961
0	N	0.317899	0.512201	0.172015
0	N	0.647759	0.49667	0.833728
0	C	0.35163	0.586277	0.287098
0	C	0.599673	0.425457	0.72136
0	C	0.345919	0.600553	0.204522
0	C	0.619293	0.407467	0.802316
0	C	0.327741	0.472095	0.346018
0	C	0.617854	0.541104	0.662
0	C	0.382966	0.688454	0.315251
0	C	0.562854	0.324633	0.694766
0	C	0.388334	0.804355	0.246241
0	C	0.563564	0.206996	0.763015
0	C	0.294791	0.718389	0.38867
0	C	0.646261	0.296598	0.619108
0	C	0.377537	0.807915	0.167522
0	C	0.591192	0.198352	0.83942
0	C	0.364419	0.684918	0.459045
0	C	0.572322	0.331992	0.550798
0	C	0.113506	0.791765	0.470882
0	C	0.823482	0.227039	0.5325
0	C	0.168866	0.773259	0.39367
0	C	0.772186	0.24265	0.611001
0	H	0.11517	0.803129	0.339796
0	H	0.828814	0.211721	0.663439
0	C	0.423543	0.0189449	0.111255
0	C	0.540878	0.989715	0.897986
0	H	0.527698	0.992884	0.105853
0	H	0.437836	0.0198215	0.910937
0	H	0.398724	0.107455	0.0634237
0	H	0.568823	0.899037	0.943333
0	C	0.283515	0.399928	0.22683
0	C	0.673496	0.61222	0.778256
0	C	0.30817	0.704126	0.534903
0	C	0.624697	0.315482	0.473586
0	H	0.361603	0.677456	0.588655
0	H	0.568596	0.343725	0.421054
0	C	0.513773	0.638786	0.352297
0	C	0.428801	0.374135	0.661745
0	C	0.402118	0.920305	0.26455
0	C	0.540777	0.0941608	0.745305
0	C	0.264515	0.26654	0.369362
0	C	0.682662	0.746433	0.635366
0	H	0.242438	0.205619	0.335586
0	H	0.703164	0.809452	0.668079
0	H	0.185296	0.283666	0.416061
0	H	0.761946	0.729772	0.588594
0	H	0.349816	0.217749	0.401025
0	H	0.596684	0.792448	0.603781
0	C	0.367572	0.918034	0.094986
0	C	0.609683	0.0850619	0.909454
0	H	0.265248	0.954303	0.0857793
0	H	0.713646	0.0452601	0.909193
0	H	0.412291	0.892104	0.0373357
0	H	0.580168	0.107284	0.969981
0	C	0.179859	0.759407	0.540035
0	C	0.753045	0.261423	0.465106
0	H	0.132802	0.776636	0.598421
0	H	0.797129	0.246785	0.405493
0	C	0.373979	0.0388505	0.196685
0	C	0.57179	0.972868	0.810499
0	H	0.411328	0.114266	0.207939
0	H	0.523531	0.902623	0.802361
0	H	0.269965	0.0741235	0.200319
0	H	0.673792	0.931776	0.79961
0	C	0.279864	0.551795	0.0865024
0	C	0.692902	0.458023	0.917299
0	H	0.251416	0.474187	0.0718756
0	H	0.737311	0.530397	0.926102
0	H	0.359097	0.580114	0.042318
0	H	0.613166	0.44404	0.964657
0	H	0.197758	0.63081	0.0807575
0	H	0.765518	0.370758	0.924172
