#******************************************
#
# CIF file created by Zeo++
# Zeo++ is an open source package to
# analyze microporous materials
#
#*******************************************

_cell_length_a		12.9316(0)
_cell_length_b		4.79788(0)
_cell_length_c		16.2991(0)
_cell_angle_alpha		90(0)
_cell_angle_beta		95.7986(0)
_cell_angle_gamma		90(0)

_symmetry_space_group_name_H-M		'P1'
_symmetry_Int_Tables_number		1
_symmetry_cell_setting		Monoclinic

loop_
_symmetry_equiv_pos_as_xyz
'+x,+y,+z'

loop_
_atom_site_label
_atom_site_type_symbol
_atom_site_fract_x
_atom_site_fract_y
_atom_site_fract_z
0	C	0.263821	0.832413	0.157679
0	C	0.772734	0.330336	0.898193
0	N	0.338658	0.915932	0.222885
0	N	0.698256	0.416517	0.833071
0	C	0.303352	0.143066	0.270503
0	C	0.734302	0.644145	0.785949
0	C	0.191489	0.203497	0.237153
0	C	0.84639	0.701381	0.819448
0	H	0.182242	0.432061	0.226249
0	H	0.856341	0.929633	0.830811
0	C	0.173281	0.0363885	0.155206
0	C	0.86397	0.532277	0.901117
0	H	0.175246	0.175591	0.0996947
0	H	0.862537	0.670386	0.956887
0	O	0.273289	0.6287	0.114485
0	O	0.762671	0.126339	0.941128
0	O	0.35776	0.260025	0.324192
0	O	0.680384	0.763381	0.732444
0	C	0.443867	0.792801	0.239269
0	C	0.592992	0.294362	0.816255
0	H	0.439637	0.570961	0.218016
0	H	0.596897	0.0719547	0.837276
0	H	0.465434	0.788882	0.307513
0	H	0.5716	0.291014	0.747974
0	C	0.522721	0.955792	0.196717
0	C	0.513993	0.456987	0.858798
0	C	0.564776	0.202337	0.231555
0	C	0.472068	0.70379	0.8241
0	H	0.541168	0.27315	0.290883
0	H	0.495963	0.775414	0.764936
0	C	0.636141	0.35989	0.191589
0	C	0.400235	0.860575	0.863808
0	H	0.672301	0.545028	0.220512
0	H	0.363884	0.0451277	0.834752
0	C	0.664756	0.254461	0.116964
0	C	0.371223	0.754416	0.938213
0	C	0.628371	0.0028445	0.0825994
0	C	0.407771	0.502843	0.972622
0	H	0.655388	0.926058	0.0251462
0	H	0.380466	0.42521	0.0299007
0	C	0.555635	0.852521	0.122854
0	C	0.480803	0.353087	0.932515
0	H	0.520073	0.666158	0.0938223
0	H	0.516503	0.166863	0.961591
0	F	0.729876	0.406022	0.0763571
0	F	0.305376	0.904632	0.978464
0	C	0.106342	0.103887	0.29147
0	C	0.931293	0.600965	0.764968
0	H	0.0491844	0.283127	0.29083
0	H	0.989153	0.778615	0.765967
0	N	0.0572939	0.848214	0.247979
0	N	0.979482	0.343143	0.807976
0	C	0.941446	0.8446	0.251241
0	C	0.095354	0.336961	0.80471
0	H	0.921039	0.872123	0.314865
0	H	0.115787	0.364561	0.741111
0	H	0.913598	0.626495	0.231262
0	H	0.12277	0.118253	0.824494
0	C	0.899243	0.0722683	0.191334
0	C	0.138193	0.563633	0.864786
0	H	0.899091	0.287551	0.220105
0	H	0.139475	0.778406	0.835913
0	H	0.81877	0.0255655	0.166836
0	H	0.218247	0.513886	0.889709
0	C	0.973593	0.0734101	0.122395
0	C	0.0633719	0.568057	0.933386
0	H	0.995404	0.287866	0.103456
0	H	0.0415742	0.78361	0.951404
0	C	0.0681532	0.891465	0.157065
0	C	0.968783	0.385845	0.898947
0	H	0.0637805	0.684045	0.124335
0	H	0.973137	0.178098	0.931607
0	O	0.930089	0.927419	0.0504481
0	O	0.10646	0.425057	0.00592972
0	H	0.86648	0.0236455	0.0238124
0	H	0.169865	0.52301	0.0326505
0	C	0.141708	0.0340549	0.380289
0	C	0.895553	0.534423	0.675982
0	C	0.199992	0.794438	0.401492
0	C	0.837066	0.295506	0.654319
0	H	0.225252	0.658315	0.353507
0	H	0.811663	0.15845	0.70206
0	C	0.225673	0.722356	0.48429
0	C	0.811383	0.22529	0.571388
0	H	0.274175	0.540027	0.500247
0	H	0.7629	0.0431906	0.55508
0	C	0.192614	0.897201	0.545154
0	C	0.844531	0.401365	0.510844
0	C	0.135813	0.139147	0.525816
0	C	0.901238	0.643254	0.530653
0	H	0.111005	0.275812	0.573753
0	H	0.926064	0.78091	0.482951
0	C	0.110672	0.208797	0.442815
0	C	0.926398	0.710953	0.613796
0	H	0.0633316	0.393357	0.426866
0	H	0.973513	0.895662	0.630116
0	Br	0.228756	0.802084	0.659113
0	Br	0.808607	0.308214	0.396713
