#******************************************
#
# CIF file created by Zeo++
# Zeo++ is an open source package to
# analyze microporous materials
#
#*******************************************

_cell_length_a		15.7386(0)
_cell_length_b		13.9(0)
_cell_length_c		19.0506(0)
_cell_angle_alpha		90(0)
_cell_angle_beta		111.286(0)
_cell_angle_gamma		90(0)

_symmetry_space_group_name_H-M		'P1'
_symmetry_Int_Tables_number		1
_symmetry_cell_setting		Monoclinic

loop_
_symmetry_equiv_pos_as_xyz
'+x,+y,+z'

loop_
_atom_site_label
_atom_site_type_symbol
_atom_site_fract_x
_atom_site_fract_y
_atom_site_fract_z
0	P	0.127735	0.238788	0.255443
0	P	0.931386	0.731416	0.269749
0	P	0.950353	0.748451	0.778983
0	P	0.146805	0.255924	0.764819
0	O	0.101595	0.300397	0.174864
0	O	0.955727	0.791292	0.350734
0	O	0.976507	0.686812	0.859547
0	O	0.122292	0.196155	0.683774
0	O	0.22062	0.177411	0.26214
0	O	0.838663	0.669031	0.261549
0	O	0.857405	0.809712	0.772308
0	O	0.239572	0.318216	0.772967
0	O	0.0509584	0.170831	0.24494
0	O	0.00901325	0.664499	0.280382
0	O	0.0270641	0.81649	0.789478
0	O	0.06921	0.322848	0.754276
0	O	0.260208	0.45061	0.46469
0	O	0.802413	0.946901	0.0623726
0	O	0.818038	0.536603	0.569771
0	O	0.275818	0.0402173	0.972068
0	C	0.176098	0.345916	0.160738
0	C	0.880436	0.836348	0.363893
0	C	0.90203	0.641143	0.873595
0	C	0.197459	0.150927	0.670539
0	H	0.201668	0.406812	0.200395
0	H	0.85604	0.897923	0.324744
0	H	0.876561	0.58027	0.833905
0	H	0.221778	0.0893001	0.709637
0	H	0.142322	0.375065	0.102982
0	H	0.913386	0.864187	0.422174
0	H	0.93579	0.611952	0.931339
0	H	0.164418	0.123165	0.612247
0	C	0.251906	0.273444	0.163401
0	C	0.803422	0.764343	0.35914
0	C	0.826083	0.713449	0.870921
0	C	0.274565	0.222815	0.675279
0	C	0.289566	0.226493	0.242493
0	C	0.768337	0.716824	0.280156
0	C	0.788452	0.76045	0.791836
0	C	0.309777	0.270287	0.754279
0	H	0.336569	0.166309	0.243911
0	H	0.721938	0.655749	0.278067
0	H	0.74133	0.820519	0.790394
0	H	0.356272	0.331274	0.75637
0	H	0.324966	0.278668	0.287509
0	H	0.732832	0.768532	0.234685
0	H	0.753199	0.708272	0.746795
0	H	0.345231	0.218502	0.799709
0	C	0.328761	0.329083	0.149741
0	C	0.724907	0.820758	0.369589
0	C	0.749282	0.65766	0.884489
0	C	0.352964	0.166271	0.664754
0	H	0.303937	0.361036	0.0929331
0	H	0.747419	0.854195	0.42573
0	H	0.774101	0.625621	0.94127
0	H	0.330409	0.133063	0.608525
0	H	0.385253	0.281257	0.152446
0	H	0.667788	0.773289	0.365897
0	H	0.692691	0.705341	0.881771
0	H	0.410224	0.213614	0.668607
0	H	0.356108	0.387649	0.189945
0	H	0.698715	0.87833	0.328111
0	H	0.722032	0.599103	0.844239
0	H	0.378947	0.108494	0.706067
0	C	0.215237	0.196168	0.102733
0	C	0.837563	0.687909	0.420838
0	C	0.862593	0.790709	0.931642
0	C	0.240467	0.299272	0.613593
0	H	0.157286	0.15724	0.108006
0	H	0.895033	0.64683	0.416729
0	H	0.920372	0.829937	0.926332
0	H	0.182891	0.340232	0.617621
0	H	0.267368	0.142745	0.104648
0	H	0.784205	0.636066	0.418848
0	H	0.8103	0.843874	0.92984
0	H	0.293796	0.351199	0.615683
0	H	0.192232	0.227282	0.0458763
0	H	0.86073	0.719794	0.477496
0	H	0.885785	0.759475	0.988465
0	H	0.21745	0.267426	0.556926
0	C	0.154778	0.328322	0.330568
0	C	0.905635	0.822373	0.19563
0	C	0.923327	0.658935	0.703855
0	C	0.172592	0.164888	0.83887
0	C	0.0906625	0.394133	0.327508
0	C	0.970301	0.887773	0.199261
0	C	0.987497	0.593076	0.706954
0	C	0.107869	0.0994601	0.83522
0	C	0.992113	0.388925	0.27517
0	C	0.0689297	0.879491	0.251022
0	C	0.0860226	0.598346	0.7593
0	C	0.00927767	0.107808	0.783471
0	H	0.97757	0.340347	0.22617
0	H	0.0827255	0.830267	0.299578
0	H	0.100555	0.646925	0.808295
0	H	0.995472	0.157032	0.734921
0	H	0.968259	0.461043	0.249684
0	H	0.0952741	0.950601	0.27702
0	H	0.109891	0.526222	0.784793
0	H	0.982932	0.0367028	0.757441
0	C	0.936824	0.357395	0.323597
0	C	0.121708	0.846327	0.201056
0	C	0.141316	0.62987	0.710871
0	C	0.956475	0.140899	0.833437
0	H	0.863575	0.355994	0.287775
0	H	0.194857	0.839679	0.236167
0	H	0.214563	0.631333	0.746706
0	H	0.883338	0.147601	0.798325
0	H	0.955705	0.282692	0.343754
0	H	0.098441	0.773346	0.178543
0	H	0.122383	0.704541	0.690663
0	H	0.979772	0.213843	0.856037
0	C	0.952247	0.424658	0.391164
0	C	0.109055	0.916376	0.135636
0	C	0.125961	0.562555	0.643344
0	C	0.969092	0.0707197	0.898773
0	H	0.916591	0.493836	0.370863
0	H	0.147073	0.983625	0.158055
0	H	0.161627	0.493393	0.663681
0	H	0.931123	0.0034759	0.876267
0	H	0.920286	0.393392	0.429125
0	H	0.140127	0.885525	0.0969166
0	H	0.157907	0.593796	0.605372
0	H	0.937949	0.101448	0.937483
0	C	0.0538712	0.443994	0.435541
0	C	0.00820165	0.940221	0.0920181
0	C	0.0243416	0.543173	0.598966
0	C	0.0699555	0.0469052	0.942422
0	H	0.0885476	0.378759	0.465989
0	H	0.97138	0.877127	0.0595588
0	H	0.989644	0.60836	0.568458
0	H	0.106747	0.109983	0.974919
0	H	0.0615537	0.499123	0.479537
0	H	0.00237425	0.997419	0.0500057
0	H	0.0167024	0.487997	0.555009
0	H	0.0757672	0.989655	0.984388
0	C	0.0998773	0.47793	0.38105
0	C	0.962359	0.972842	0.147032
0	C	0.978309	0.509289	0.653445
0	C	0.115832	0.014378	0.887405
0	H	0.0568545	0.539841	0.346087
0	H	0.00536952	0.0338673	0.182887
0	H	0.021327	0.447371	0.688434
0	H	0.0728259	0.953364	0.851515
0	C	0.195634	0.522045	0.417902
0	C	0.866974	0.0180387	0.1093
0	C	0.882582	0.465155	0.616574
0	C	0.211209	0.969137	0.925128
0	C	0.232423	0.544394	0.355896
0	C	0.828997	0.0416253	0.170273
0	C	0.845755	0.442811	0.678562
0	C	0.249125	0.945564	0.864114
0	C	0.20856	0.617132	0.302665
0	C	0.850181	0.117257	0.22096
0	C	0.869616	0.370054	0.731776
0	C	0.2279	0.86995	0.813421
0	H	0.154098	0.668284	0.299555
0	H	0.903322	0.169486	0.222702
0	H	0.924096	0.31892	0.734916
0	H	0.174768	0.817727	0.8117
0	C	0.254474	0.621877	0.251682
0	C	0.802887	0.123841	0.27084
0	C	0.823612	0.365239	0.782692
0	C	0.275114	0.863389	0.763481
0	H	0.237219	0.679092	0.209671
0	H	0.817176	0.183945	0.310177
0	H	0.840843	0.307987	0.824676
0	H	0.260748	0.80332	0.724106
0	C	0.321662	0.55491	0.254655
0	C	0.73808	0.0549309	0.269846
0	C	0.756351	0.432129	0.779668
0	C	0.339961	0.932263	0.764484
0	H	0.358072	0.561028	0.215962
0	H	0.701084	0.0617797	0.307959
0	H	0.719842	0.425933	0.818288
0	H	0.376892	0.925427	0.726322
0	C	0.343257	0.479018	0.307211
0	C	0.719101	0.976313	0.219748
0	C	0.734764	0.508032	0.727122
0	C	0.359036	0.0108363	0.814636
0	H	0.39543	0.426905	0.30886
0	H	0.66841	0.923065	0.219674
0	H	0.682512	0.560066	0.725424
0	H	0.409773	0.0640415	0.814733
0	C	0.297135	0.473496	0.35664
0	C	0.765071	0.970107	0.170247
0	C	0.780967	0.513645	0.677754
0	C	0.313069	0.0170679	0.864136
0	C	0.304077	0.400888	0.418148
0	C	0.757817	0.897578	0.108698
0	C	0.774065	0.586274	0.616267
0	C	0.32038	0.0895713	0.925722
0	C	0.242115	0.312755	0.392127
0	C	0.818326	0.808319	0.133905
0	C	0.836021	0.674412	0.642315
0	C	0.259877	0.178832	0.90057
0	C	0.264607	0.231406	0.433184
0	C	0.794774	0.727445	0.0923345
0	C	0.813473	0.755744	0.601189
0	C	0.283475	0.259722	0.942191
0	H	0.332196	0.224164	0.47769
0	H	0.727406	0.721272	0.0473294
0	H	0.745902	0.762901	0.556662
0	H	0.350858	0.265868	0.987171
0	C	0.205905	0.147177	0.427849
0	C	0.851972	0.641941	0.0976909
0	C	0.872117	0.840016	0.606551
0	C	0.226247	0.345163	0.936857
0	C	0.117558	0.158755	0.428546
0	C	0.941175	0.651674	0.0985446
0	C	0.960477	0.828574	0.605855
0	C	0.13707	0.335399	0.936056
0	H	0.0909283	0.230938	0.430044
0	H	0.969564	0.723412	0.0986749
0	H	0.987163	0.756427	0.60433
0	H	0.108742	0.263649	0.935994
0	C	0.0633084	0.0783463	0.426262
0	C	0.993792	0.570255	0.0999747
0	C	0.0146585	0.909065	0.608184
0	C	0.0843963	0.416785	0.934592
0	H	0.994381	0.0883016	0.425541
0	H	0.063229	0.57893	0.101531
0	H	0.0835907	0.899213	0.608897
0	H	0.0149791	0.408079	0.933068
0	C	0.0969594	0.985832	0.423933
0	C	0.957881	0.478516	0.100652
0	C	0.980909	0.0015175	0.610563
0	C	0.120248	0.508544	0.933837
0	H	0.0544489	0.92264	0.421072
0	H	0.999441	0.414404	0.103289
0	H	0.0233603	0.0647765	0.613455
0	H	0.0786378	0.572621	0.931164
0	C	0.185334	0.973863	0.424132
0	C	0.868932	0.468273	0.0995097
0	C	0.892518	0.0133541	0.610368
0	C	0.209184	0.518838	0.934952
0	H	0.211644	0.901659	0.422573
0	H	0.84124	0.396538	0.100349
0	H	0.86614	0.0855096	0.611971
0	H	0.236831	0.590585	0.934068
0	C	0.239675	0.0539431	0.425957
0	C	0.815966	0.549404	0.0979215
0	C	0.838254	0.933203	0.608491
0	C	0.262187	0.437723	0.936567
0	H	0.307694	0.0441651	0.424832
0	H	0.747305	0.541201	0.0980985
0	H	0.770224	0.942864	0.609617
0	H	0.330833	0.445965	0.936362
0	C	0.201475	0.607273	0.469079
0	C	0.862705	0.103348	0.0585739
0	C	0.87673	0.379922	0.565405
0	C	0.21545	0.88378	0.975797
0	C	0.130164	0.674129	0.450965
0	C	0.935027	0.169061	0.0779044
0	C	0.948001	0.313017	0.583528
0	C	0.143054	0.818173	0.95648
0	H	0.0690158	0.663805	0.400286
0	H	0.996019	0.15658	0.128339
0	H	0.00913897	0.323286	0.63423
0	H	0.0820119	0.830788	0.906122
0	C	0.136511	0.754482	0.496564
0	C	0.929703	0.251008	0.0342196
0	C	0.941647	0.232695	0.537902
0	C	0.148382	0.736114	5.80964e-05
0	H	0.0798783	0.805604	0.48087
0	H	0.986953	0.301551	0.0514334
0	H	0.998238	0.181514	0.553608
0	H	0.0910857	0.685632	0.982824
0	C	0.214415	0.769058	0.560827
0	C	0.851826	0.268036	0.970417
0	C	0.863786	0.21819	0.4736
0	C	0.22631	0.718913	0.0637757
0	H	0.219701	0.832358	0.595828
0	H	0.84724	0.332761	0.937095
0	H	0.858508	0.154933	0.438565
0	H	0.2309	0.654097	0.0969927
0	C	0.28552	0.702033	0.579612
0	C	0.780016	0.201786	0.949926
0	C	0.79268	0.285212	0.454837
0	C	0.298183	0.785113	0.0842969
0	H	0.345886	0.711972	0.630049
0	H	0.719815	0.213736	0.899721
0	H	0.732318	0.275299	0.404395
0	H	0.358415	0.773046	0.134454
0	C	0.279235	0.621698	0.533897
0	C	0.785296	0.119839	0.993869
0	C	0.798972	0.365522	0.500584
0	C	0.292922	0.86712	0.0404212
0	H	0.334724	0.568785	0.548351
0	H	0.729338	0.0675514	0.978466
0	H	0.74347	0.418412	0.486149
0	H	0.348934	0.919345	0.0558256
0	C	0.40215	0.382494	0.468115
0	C	0.660287	0.878446	0.0579847
0	C	0.676003	0.604597	0.56624
0	C	0.417931	0.108699	0.976397
0	C	0.439102	0.428224	0.538202
0	C	0.626395	0.918112	0.985528
0	C	0.639213	0.558986	0.496097
0	C	0.451882	0.0690538	0.0488501
0	H	0.395651	0.476394	0.556448
0	H	0.670481	0.965447	0.967431
0	H	0.682775	0.510971	0.477846
0	H	0.407849	0.0216957	0.0669743
0	C	0.530406	0.413829	0.583589
0	C	0.537402	0.897904	0.937463
0	C	0.547907	0.573221	0.450667
0	C	0.540888	0.0893537	0.0968838
0	H	0.55878	0.450506	0.637641
0	H	0.512091	0.927964	0.880791
0	H	0.519671	0.536625	0.396575
0	H	0.566247	0.059323	0.153565
0	C	0.585515	0.354142	0.558999
0	C	0.481207	0.839913	0.962157
0	C	0.492607	0.632633	0.475265
0	C	0.59701	0.147365	0.0721305
0	H	0.657232	0.344146	0.594006
0	H	0.411363	0.825343	0.92476
0	H	0.420875	0.642468	0.440237
0	H	0.666852	0.162022	0.109502
0	C	0.548638	0.308259	0.489053
0	C	0.514479	0.801512	0.0349912
0	C	0.529334	0.678454	0.545248
0	C	0.563684	0.18567	0.999256
0	H	0.591327	0.261674	0.469778
0	H	0.470769	0.756679	0.0545473
0	H	0.486507	0.724843	0.564525
0	H	0.607356	0.230481	0.979641
0	C	0.457214	0.322056	0.443651
0	C	0.604013	0.820239	0.0828597
0	C	0.62077	0.664808	0.590698
0	C	0.474153	0.166898	0.951443
0	H	0.428622	0.285535	0.389537
0	H	0.630329	0.788915	0.139105
0	H	0.649239	0.701284	0.644842
0	H	0.447779	0.198141	0.895172
