#******************************************
#
# CIF file created by Zeo++
# Zeo++ is an open source package to
# analyze microporous materials
#
#*******************************************

_cell_length_a		8.09068(0)
_cell_length_b		11.5193(0)
_cell_length_c		22.4164(0)
_cell_angle_alpha		90(0)
_cell_angle_beta		90(0)
_cell_angle_gamma		90(0)

_symmetry_space_group_name_H-M		'P1'
_symmetry_Int_Tables_number		1
_symmetry_cell_setting		Monoclinic

loop_
_symmetry_equiv_pos_as_xyz
'+x,+y,+z'

loop_
_atom_site_label
_atom_site_type_symbol
_atom_site_fract_x
_atom_site_fract_y
_atom_site_fract_z
0	O	0.136006	0.779454	0.124779
0	O	0.367526	0.223887	0.624818
0	O	0.868637	0.27919	0.375233
0	O	0.636163	0.72397	0.875061
0	O	0.141925	0.668271	0.0400252
0	O	0.362624	0.334763	0.539965
0	O	0.862026	0.167571	0.459826
0	O	0.641191	0.835563	0.959688
0	O	0.864728	0.139723	0.184382
0	O	0.640307	0.863642	0.684213
0	O	0.138693	0.639691	0.315641
0	O	0.363653	0.363687	0.815632
0	O	0.574287	0.126968	0.198082
0	O	0.930647	0.876925	0.698052
0	O	0.429086	0.627047	0.301845
0	O	0.073283	0.376731	0.801859
0	N	0.266734	0.851114	0.0408947
0	N	0.235871	0.152562	0.541135
0	N	0.737118	0.350341	0.458997
0	N	0.76728	0.653171	0.959041
0	C	0.0655917	0.687757	0.15728
0	C	0.437957	0.315679	0.657264
0	C	0.938589	0.187472	0.342588
0	C	0.565746	0.815598	0.842504
0	C	0.933393	0.710933	0.191756
0	C	0.570459	0.292562	0.69161
0	C	0.0705629	0.210693	0.308017
0	C	0.433159	0.792564	0.808211
0	H	0.890482	0.643152	0.222553
0	H	0.613522	0.360362	0.722356
0	H	0.113223	0.143089	0.27711
0	H	0.390133	0.860433	0.77748
0	C	0.8373	0.818473	0.193467
0	C	0.666602	0.185032	0.693205
0	C	0.166443	0.318347	0.306458
0	C	0.336847	0.685085	0.806609
0	C	0.917635	0.927476	0.186824
0	C	0.586688	0.0758994	0.686513
0	C	0.0860063	0.427324	0.313166
0	C	0.416863	0.575991	0.81329
0	H	0.0505867	0.932649	0.179806
0	H	0.453794	0.0704803	0.679426
0	H	0.953098	0.432376	0.320214
0	H	0.549809	0.570691	0.820364
0	C	0.817694	0.0238367	0.189173
0	C	0.686916	0.979633	0.688951
0	C	0.185814	0.523809	0.310835
0	C	0.316808	0.479617	0.810883
0	C	0.713144	0.207737	0.191851
0	C	0.792105	0.795901	0.691795
0	C	0.290169	0.70778	0.308051
0	C	0.211988	0.295808	0.80805
0	H	0.724097	0.256853	0.233704
0	H	0.781197	0.746823	0.733661
0	H	0.279056	0.756771	0.266161
0	H	0.222929	0.24681	0.766158
0	H	0.693923	0.257625	0.150732
0	H	0.811659	0.745949	0.650712
0	H	0.309459	0.757882	0.349109
0	H	0.192604	0.24571	0.849099
0	C	0.643419	0.0160748	0.197198
0	C	0.861093	0.987682	0.697069
0	C	0.360049	0.516121	0.302771
0	C	0.1426	0.487587	0.802809
0	C	0.56402	0.91099	0.203271
0	C	0.940178	0.0929359	0.703139
0	C	0.439591	0.411037	0.296703
0	C	0.0634914	0.592812	0.796755
0	H	0.431065	0.90441	0.20873
0	H	0.0730642	0.0997114	0.708689
0	H	0.572518	0.404516	0.291226
0	H	0.930485	0.599534	0.791252
0	C	0.665733	0.811465	0.201957
0	C	0.838144	0.192248	0.701738
0	C	0.338033	0.311425	0.298012
0	C	0.165294	0.692239	0.79812
0	H	0.607472	0.726817	0.20803
0	H	0.896139	0.276996	0.707796
0	H	0.396238	0.226735	0.291991
0	H	0.10727	0.777003	0.792078
0	C	0.146795	0.573111	0.153215
0	C	0.356385	0.430172	0.653217
0	C	0.856996	0.0730097	0.34672
0	C	0.647325	0.930122	0.846477
0	C	0.319607	0.563396	0.15409
0	C	0.183556	0.439652	0.65409
0	C	0.684178	0.0634857	0.345878
0	C	0.820139	0.939613	0.845557
0	H	0.395382	0.641449	0.157177
0	H	0.107993	0.361492	0.65718
0	H	0.608496	0.141578	0.342802
0	H	0.895648	0.861454	0.842348
0	C	0.393578	0.453982	0.150817
0	C	0.109317	0.548987	0.65082
0	C	0.609983	0.954141	0.349167
0	C	0.894465	0.0489068	0.848935
0	H	0.527634	0.446938	0.151386
0	H	0.975248	0.555894	0.651382
0	H	0.47591	0.947224	0.348597
0	H	0.0285468	0.0557762	0.848365
0	C	0.29604	0.353979	0.147131
0	C	0.206644	0.649103	0.647127
0	C	0.707394	0.854091	0.352876
0	C	0.797117	0.14897	0.852768
0	H	0.353911	0.268487	0.145561
0	H	0.148599	0.734525	0.645562
0	H	0.649401	0.768662	0.354439
0	H	0.85522	0.234362	0.854459
0	C	0.123713	0.363473	0.146033
0	C	0.379019	0.639821	0.646016
0	C	0.879775	0.863429	0.353999
0	C	0.624727	0.139702	0.85386
0	H	0.0475342	0.285326	0.143562
0	H	0.455055	0.718021	0.643541
0	H	0.955843	0.78526	0.356502
0	H	0.548705	0.217891	0.856424
0	C	0.0490195	0.472662	0.148662
0	C	0.453951	0.530721	0.648631
0	C	0.954685	0.972516	0.35134
0	C	0.549722	0.0306458	0.851132
0	H	0.914985	0.480206	0.146788
0	H	0.588006	0.523284	0.646714
0	H	0.0887284	0.980048	0.353249
0	H	0.415658	0.0232115	0.853025
0	C	0.177554	0.759381	0.0640275
0	C	0.326201	0.243934	0.564084
0	C	0.826585	0.258753	0.435869
0	C	0.677464	0.744449	0.9358
0	C	0.281243	0.964571	0.072384
0	C	0.221244	0.0390319	0.572514
0	C	0.722382	0.463902	0.427624
0	C	0.782956	0.539696	0.927609
0	H	0.406349	0.999901	0.0617076
0	H	0.0959582	0.0039695	0.561906
0	H	0.597037	0.498896	0.438245
0	H	0.908416	0.505023	0.93826
0	H	0.278758	0.948556	0.12144
0	H	0.224036	0.0549353	0.621608
0	H	0.725286	0.448001	0.378572
0	H	0.780239	0.555696	0.878538
0	C	0.147075	0.051058	0.0549
0	C	0.354941	0.952324	0.554884
0	C	0.855851	0.550847	0.445245
0	C	0.64975	0.452562	0.945132
0	H	0.162444	0.133478	0.0788231
0	H	0.339268	0.869856	0.578735
0	H	0.839955	0.633177	0.42127
0	H	0.665902	0.370257	0.921168
0	H	0.0229064	0.0182847	0.0653724
0	H	0.479343	0.984742	0.565296
0	H	0.980356	0.518608	0.434872
0	H	0.525189	0.484665	0.934729
0	H	0.149369	0.0707823	0.00703563
0	H	0.352321	0.932743	0.507002
0	H	0.853097	0.570685	0.493089
0	H	0.652434	0.432761	0.992984
0	C	0.293643	0.849349	0.974734
0	C	0.208831	0.15438	0.475011
0	C	0.710099	0.348089	0.525114
0	C	0.794544	0.655465	0.0251705
0	H	0.364817	0.768636	0.964415
0	H	0.137986	0.235252	0.464743
0	H	0.639124	0.267198	0.535251
0	H	0.86548	0.736389	0.0352779
0	H	0.376054	0.923482	0.963039
0	H	0.126134	0.0803881	0.463355
0	H	0.627548	0.422049	0.536928
0	H	0.877243	0.581537	0.0369462
0	C	0.134384	0.85064	0.93851
0	C	0.368116	0.152806	0.438809
0	C	0.869512	0.349212	0.561255
0	C	0.635507	0.65421	0.0615277
0	H	0.161713	0.860183	0.890842
0	H	0.340751	0.143429	0.391149
0	H	0.842404	0.358722	0.608929
0	H	0.663191	0.644795	0.109178
0	H	0.0496354	0.920288	0.951656
0	H	0.45248	0.0829298	0.451958
0	H	0.95431	0.418785	0.548043
0	H	0.55076	0.584494	0.0484963
0	H	0.0664918	0.768229	0.943774
0	H	0.43638	0.235061	0.444157
0	H	0.937227	0.266732	0.555906
0	H	0.567515	0.736583	0.0562547
