#******************************************
#
# CIF file created by Zeo++
# Zeo++ is an open source package to
# analyze microporous materials
#
#*******************************************

_cell_length_a		19.5573(0)
_cell_length_b		19.5553(0)
_cell_length_c		12.949(0)
_cell_angle_alpha		90(0)
_cell_angle_beta		90(0)
_cell_angle_gamma		119.819(0)

_symmetry_space_group_name_H-M		'P1'
_symmetry_Int_Tables_number		1
_symmetry_cell_setting		Monoclinic

loop_
_symmetry_equiv_pos_as_xyz
'+x,+y,+z'

loop_
_atom_site_label
_atom_site_type_symbol
_atom_site_fract_x
_atom_site_fract_y
_atom_site_fract_z
0	S	0.372116	0.894976	0.1334
0	S	0.0945434	0.472169	0.464832
0	S	0.516399	0.617369	0.796266
0	S	0.617346	0.0960885	0.630516
0	S	0.893864	0.51819	0.964815
0	S	0.472139	0.374251	0.29965
0	Si	0.555971	0.0512448	0.0424032
0	Si	0.938389	0.500634	0.374126
0	Si	0.489116	0.434787	0.704209
0	Si	0.433748	0.940004	0.540025
0	Si	0.0497213	0.489369	0.873351
0	Si	0.499197	0.556918	0.207894
0	Si	0.661052	0.886015	0.34041
0	Si	0.104616	0.770556	0.671593
0	Si	0.220898	0.329395	0.0061373
0	Si	0.32882	0.106183	0.836738
0	Si	0.886126	0.222086	0.175722
0	Si	0.769366	0.662324	0.506617
0	Si	0.167587	0.789111	0.193318
0	Si	0.201177	0.373185	0.523242
0	Si	0.615522	0.821394	0.855142
0	Si	0.821919	0.202611	0.688207
0	Si	0.788221	0.618207	0.0257434
0	Si	0.373479	0.170048	0.358784
0	C	0.523133	0.854178	0.280654
0	C	0.136063	0.664097	0.611841
0	C	0.326489	0.467003	0.94611
0	C	0.466566	0.137807	0.776863
0	C	0.85406	0.327851	0.114623
0	C	0.663504	0.524667	0.446922
0	C	0.543931	0.972724	0.137357
0	C	0.0167316	0.566529	0.469525
0	C	0.42292	0.445702	0.800943
0	C	0.445632	0.0184092	0.634938
0	C	0.972032	0.42405	0.969994
0	C	0.565938	0.545979	0.303742
0	C	0.224725	0.701032	0.310764
0	C	0.289073	0.517841	0.640711
0	C	0.47213	0.765353	0.976198
0	C	0.765056	0.290948	0.805868
0	C	0.701016	0.474017	0.143759
0	C	0.518284	0.226252	0.476786
0	H	0.162854	0.661069	0.331548
0	H	0.329255	0.495863	0.660908
0	H	0.494347	0.82723	0.997373
0	H	0.827004	0.331039	0.826001
0	H	0.660944	0.496065	0.164282
0	H	0.496495	0.164358	0.497384
0	C	0.468924	0.914125	0.165065
0	C	0.0754603	0.549909	0.496809
0	C	0.439309	0.520798	0.828792
0	C	0.520649	0.0771382	0.662272
0	C	0.913396	0.440797	0.997443
0	C	0.549636	0.470872	0.331387
0	C	0.379871	0.797878	0.263861
0	C	0.191985	0.576534	0.594883
0	C	0.413111	0.6102	0.928877
0	C	0.609808	0.193759	0.760139
0	C	0.797629	0.414902	0.096843
0	C	0.576597	0.381457	0.43019
0	C	0.322585	0.811427	0.21697
0	C	0.178323	0.505756	0.547886
0	C	0.483226	0.667135	0.880851
0	C	0.667001	0.180107	0.713164
0	C	0.810882	0.485341	0.0492376
0	C	0.505911	0.324449	0.383291
0	C	0.609526	0.971505	0.184367
0	C	0.0182684	0.633508	0.516458
0	C	0.35685	0.380252	0.848746
0	C	0.380108	0.019912	0.681604
0	C	0.971204	0.357774	0.0181505
0	C	0.632569	0.611442	0.350642
0	H	0.668988	0.0183783	0.164493
0	H	0.971261	0.646381	0.497056
0	H	0.344408	0.320701	0.82874
0	H	0.32073	0.972814	0.661966
0	H	0.0181151	0.344765	0.99857
0	H	0.645146	0.671071	0.330806
0	C	0.459256	0.855038	0.235725
0	C	0.13483	0.599132	0.567058
0	C	0.390609	0.530721	0.900408
0	C	0.530372	0.136588	0.732284
0	C	0.854637	0.392153	0.0687553
0	C	0.598929	0.460952	0.402013
0	C	0.281543	0.687066	0.355971
0	C	0.303066	0.58848	0.6862
0	C	0.402209	0.708819	0.0229013
0	C	0.708331	0.304913	0.851402
0	C	0.687542	0.4038	0.189951
0	C	0.588873	0.282775	0.522135
0	H	0.263012	0.63755	0.409128
0	H	0.352769	0.61922	0.739078
0	H	0.372087	0.727422	0.0775473
0	H	0.727083	0.354654	0.904219
0	H	0.638582	0.373572	0.243984
0	H	0.619832	0.264072	0.575216
0	C	0.429297	0.733702	0.381599
0	C	0.256556	0.689907	0.71246
0	C	0.301184	0.561253	0.0490704
0	C	0.560609	0.258077	0.878026
0	C	0.734009	0.302468	0.216001
0	C	0.689836	0.430379	0.548076
0	C	0.507111	0.791787	0.355429
0	C	0.198589	0.710159	0.686465
0	C	0.280927	0.48331	0.0220249
0	C	0.482707	0.200197	0.851731
0	C	0.791951	0.282229	0.18994
0	C	0.709676	0.508346	0.521842
0	C	0.362375	0.737033	0.335124
0	C	0.253015	0.619598	0.665858
0	C	0.370852	0.627922	0.00172517
0	C	0.627437	0.254776	0.831152
0	C	0.737288	0.372465	0.16892
0	C	0.619769	0.363694	0.501502
0	C	0.56451	0.736965	0.469334
0	C	0.253488	0.821755	0.800954
0	C	0.169855	0.42645	0.137485
0	C	0.425586	0.254123	0.9677
0	C	0.737032	0.170721	0.304552
0	C	0.821373	0.565201	0.636219
0	H	0.614347	0.735651	0.504917
0	H	0.254856	0.872745	0.8371
0	H	0.118861	0.376897	0.173286
0	H	0.375889	0.254952	0.00451488
0	H	0.735502	0.1196	0.34052
0	H	0.872316	0.614788	0.67213
0	C	0.600832	0.914135	0.255137
0	C	0.076074	0.682138	0.586584
0	C	0.308775	0.389226	0.920336
0	C	0.388857	0.0777448	0.751627
0	C	0.914105	0.309825	0.0894794
0	C	0.681193	0.602463	0.421309
0	C	0.48728	0.677695	0.49591
0	C	0.312732	0.803343	0.827214
0	C	0.188602	0.503807	0.165336
0	C	0.502917	0.31309	0.9945
0	C	0.677929	0.18927	0.331045
0	C	0.803305	0.487799	0.662787
0	H	0.479779	0.632407	0.551409
0	H	0.358045	0.840686	0.882777
0	H	0.151732	0.511575	0.222099
0	H	0.510492	0.357745	0.0511475
0	H	0.632626	0.15201	0.38665
0	H	0.840861	0.479978	0.718377
0	C	0.421057	0.675791	0.453725
0	C	0.31455	0.739077	0.784613
0	C	0.252508	0.569804	0.122619
0	C	0.568972	0.315457	0.951155
0	C	0.676193	0.25358	0.288487
0	C	0.739213	0.421784	0.620398
0	H	0.362192	0.629376	0.476322
0	H	0.360969	0.726302	0.806955
0	H	0.265205	0.628691	0.14599
0	H	0.627889	0.361718	0.973898
0	H	0.630032	0.26666	0.311061
0	H	0.726703	0.362791	0.64305
0	C	0.243509	0.764259	0.241482
0	C	0.225638	0.473644	0.57176
0	C	0.515503	0.74634	0.905263
0	C	0.746166	0.227498	0.736967
0	C	0.763834	0.517645	0.0737164
0	C	0.473909	0.245291	0.407576
0	C	0.575298	0.794922	0.399277
0	C	0.195592	0.775242	0.730616
0	C	0.216033	0.415349	0.0659934
0	C	0.414653	0.19691	0.896237
0	C	0.794994	0.217264	0.234325
0	C	0.774585	0.576337	0.565793
0	C	0.662321	0.115536	0.00933293
0	C	0.874876	0.544052	0.34194
0	C	0.447107	0.328558	0.670555
0	C	0.32738	0.875892	0.507264
0	C	0.113262	0.446184	0.839882
0	C	0.541485	0.663258	0.174749
0	H	0.669357	0.164927	0.96022
0	H	0.824768	0.50285	0.293244
0	H	0.489126	0.320782	0.62174
0	H	0.319713	0.82606	0.458661
0	H	0.162747	0.487685	0.79046
0	H	0.499807	0.671561	0.125957
0	H	0.68665	0.0842252	0.966077
0	H	0.906854	0.599618	0.299058
0	H	0.391659	0.304925	0.627253
0	H	0.303092	0.907209	0.463971
0	H	0.081102	0.390653	0.796969
0	H	0.597057	0.686714	0.131752
0	H	0.69852	0.141953	0.0788275
0	H	0.849422	0.554288	0.412162
0	H	0.437064	0.292576	0.74039
0	H	0.291604	0.850034	0.577212
0	H	0.139553	0.436022	0.909271
0	H	0.551548	0.698968	0.244893
0	C	0.727467	0.861648	0.265514
0	C	0.128351	0.86067	0.595847
0	C	0.131417	0.263193	0.929377
0	C	0.262554	0.130407	0.76122
0	C	0.861962	0.131449	0.101036
0	C	0.859412	0.728918	0.431158
0	H	0.776068	0.914172	0.229235
0	H	0.0752407	0.855867	0.559765
0	H	0.136925	0.215229	0.89334
0	H	0.214257	0.0775985	0.724956
0	H	0.914639	0.135533	0.0646617
0	H	0.854106	0.777078	0.395406
0	H	0.694035	0.819656	0.203153
0	H	0.170094	0.868748	0.533269
0	H	0.123338	0.296684	0.866507
0	H	0.296006	0.172257	0.698737
0	H	0.819928	0.123141	0.0387777
0	H	0.867978	0.695641	0.36844
0	H	0.753111	0.834019	0.314237
0	H	0.155735	0.914375	0.643408
0	H	0.0773157	0.23664	0.976047
0	H	0.236541	0.158008	0.809264
0	H	0.834551	0.0781602	0.149386
0	H	0.912966	0.755206	0.478993
0	C	0.499157	0.000979479	0.923041
0	C	0.98973	0.494753	0.255384
0	C	0.494321	0.492688	0.58645
0	C	0.491127	0.991373	0.421644
0	C	0.998471	0.495318	0.754466
0	C	0.493737	0.499021	0.0899858
0	H	0.536503	0.0276352	0.854274
0	H	0.964094	0.507085	0.186799
0	H	0.483136	0.455901	0.516937
0	H	0.453879	0.965271	0.352724
0	H	0.0242381	0.482972	0.686004
0	H	0.504023	0.535353	0.0202263
0	H	0.447191	0.00827576	0.913469
0	H	0.982333	0.435661	0.243884
0	H	0.553175	0.544773	0.576339
0	H	0.543147	0.984203	0.411831
0	H	0.00621241	0.554536	0.74288
0	H	0.435213	0.446365	0.0805172
0	H	0.479083	0.93769	0.920516
0	H	0.0532334	0.537266	0.254888
0	H	0.450963	0.512816	0.586559
0	H	0.511186	0.0546728	0.420426
0	H	0.934947	0.453047	0.753402
0	H	0.537797	0.479776	0.0900719
0	C	0.51835	0.112372	0.104616
0	C	0.876476	0.402097	0.435396
0	C	0.588133	0.472735	0.764963
0	C	0.471299	0.878629	0.601401
0	C	0.112156	0.588443	0.933169
0	C	0.4005	0.519003	0.269581
0	H	0.540975	0.128865	0.183984
0	H	0.860059	0.408806	0.514626
0	H	0.582146	0.45031	0.844446
0	H	0.448643	0.862103	0.680734
0	H	0.12892	0.582862	0.0126192
0	H	0.406927	0.541487	0.349118
0	H	0.453684	0.0820238	0.108133
0	H	0.905852	0.366693	0.438973
0	H	0.622201	0.537458	0.767714
0	H	0.535961	0.908671	0.604592
0	H	0.0830422	0.624131	0.9357
0	H	0.366531	0.454266	0.272491
0	H	0.538374	0.167516	0.0606891
0	H	0.821306	0.36787	0.391278
0	H	0.623076	0.45245	0.720891
0	H	0.451005	0.823554	0.557203
0	H	0.167153	0.621952	0.888403
0	H	0.365208	0.53916	0.226067
0	C	0.172103	0.794176	0.0494646
0	C	0.196099	0.372357	0.379392
0	C	0.615997	0.815952	0.711377
0	C	0.817237	0.197357	0.544389
0	C	0.793192	0.619129	0.881704
0	C	0.372786	0.174859	0.214973
0	H	0.177183	0.744587	0.0173198
0	H	0.245413	0.426729	0.346758
0	H	0.561723	0.810786	0.678
0	H	0.811777	0.246614	0.511828
0	H	0.744015	0.564756	0.848824
0	H	0.427153	0.17991	0.182021
0	H	0.223707	0.84893	0.0225705
0	H	0.141123	0.369012	0.352513
0	H	0.61959	0.764246	0.685373
0	H	0.765761	0.142354	0.517832
0	H	0.848085	0.622508	0.854342
0	H	0.369182	0.226469	0.188557
0	H	0.119138	0.791258	0.0158944
0	H	0.199308	0.322309	0.346272
0	H	0.66597	0.868722	0.677779
0	H	0.870301	0.200488	0.510802
0	H	0.789806	0.669024	0.848371
0	H	0.322778	0.121924	0.181755
0	C	0.715745	0.962315	0.440661
0	C	0.0278153	0.749013	0.771134
0	C	0.242166	0.274558	0.106988
0	C	0.274001	0.0295526	0.936571
0	C	0.962441	0.243399	0.275973
0	C	0.747383	0.717379	0.606242
0	H	0.740448	0.941334	0.500995
0	H	0.0483106	0.793503	0.832787
0	H	0.196972	0.251107	0.167857
0	H	0.250225	0.0504676	0.998152
0	H	0.94122	0.198426	0.337104
0	H	0.792223	0.741585	0.667481
0	H	0.675312	0.978486	0.479048
0	H	0.0106901	0.691713	0.80793
0	H	0.298849	0.314414	0.145168
0	H	0.314273	0.0125058	0.973509
0	H	0.979363	0.300402	0.313458
0	H	0.690402	0.677346	0.643676
0	H	0.764387	0.0165888	0.407907
0	H	0.974225	0.744945	0.737519
0	H	0.246671	0.224976	0.0746826
0	H	0.224757	0.975788	0.903676
0	H	0.0163874	0.247591	0.243488
0	H	0.742818	0.766524	0.572331
0	C	0.192821	0.887125	0.249362
0	C	0.103257	0.30033	0.578874
0	C	0.688369	0.795819	0.910476
0	C	0.796622	0.104467	0.743785
0	C	0.88609	0.69067	0.0821935
0	C	0.300559	0.195523	0.414094
0	H	0.151272	0.906015	0.223872
0	H	0.0849596	0.240202	0.552983
0	H	0.748492	0.837088	0.884454
0	H	0.838219	0.0857444	0.717934
0	H	0.904631	0.750953	0.0567592
0	H	0.240483	0.154011	0.388101
0	H	0.252523	0.932789	0.22611
0	H	0.0573117	0.3142	0.555594
0	H	0.674261	0.736051	0.886906
0	H	0.736932	0.058888	0.720339
0	H	0.931897	0.676579	0.0589806
0	H	0.314422	0.25521	0.390523
0	H	0.191466	0.884355	0.334239
0	H	0.105867	0.301453	0.663755
0	H	0.687609	0.796998	0.995318
0	H	0.797893	0.106894	0.828666
0	H	0.883579	0.689429	0.167099
0	H	0.301493	0.19422	0.498971
0	C	0.0669271	0.713689	0.23669
0	C	0.27686	0.34791	0.566519
0	C	0.641116	0.922614	0.896897
0	C	0.922656	0.278056	0.731197
0	C	0.712589	0.643466	0.0697975
0	C	0.348066	0.0691289	0.401719
0	H	0.0234209	0.731666	0.216742
0	H	0.258586	0.286419	0.546693
0	H	0.702317	0.965395	0.875712
0	H	0.965984	0.259881	0.71109
0	H	0.730815	0.704914	0.0497615
0	H	0.28677	0.0261408	0.38134
0	H	0.0642236	0.704383	0.320919
0	H	0.286513	0.354661	0.65066
0	H	0.635218	0.926509	0.981013
0	H	0.925669	0.287647	0.815355
0	H	0.703114	0.637069	0.153998
0	H	0.354346	0.0660604	0.485933
0	H	0.0476896	0.656165	0.199484
0	H	0.334233	0.385741	0.528865
0	H	0.602745	0.941739	0.859445
0	H	0.941816	0.335453	0.693649
0	H	0.655021	0.605463	0.0327395
0	H	0.386195	0.0495427	0.364643
