#******************************************
#
# CIF file created by Zeo++
# Zeo++ is an open source package to
# analyze microporous materials
#
#*******************************************

_cell_length_a		14.5409(0)
_cell_length_b		14.5175(0)
_cell_length_c		7.41168(0)
_cell_angle_alpha		90(0)
_cell_angle_beta		90(0)
_cell_angle_gamma		119.939(0)

_symmetry_space_group_name_H-M		'P1'
_symmetry_Int_Tables_number		1
_symmetry_cell_setting		Monoclinic

loop_
_symmetry_equiv_pos_as_xyz
'+x,+y,+z'

loop_
_atom_site_label
_atom_site_type_symbol
_atom_site_fract_x
_atom_site_fract_y
_atom_site_fract_z
0	S	0.189243	0.663859	0.111412
0	S	0.322886	0.519161	0.780769
0	S	0.470441	0.799489	0.447201
0	S	0.663358	0.189849	0.91028
0	S	0.517546	0.322854	0.240005
0	S	0.798381	0.470238	0.572248
0	C	0.138798	0.663826	0.893316
0	C	0.322131	0.468394	0.562688
0	C	0.521457	0.851903	0.230314
0	C	0.661982	0.137755	0.127568
0	C	0.466131	0.322468	0.45735
0	C	0.849112	0.521372	0.789802
0	H	0.118693	0.589687	0.820339
0	H	0.395058	0.52318	0.487799
0	H	0.467911	0.873128	0.158487
0	H	0.587539	0.117361	0.199494
0	H	0.520958	0.395135	0.532837
0	H	0.868415	0.467024	0.863911
0	H	0.199275	0.729243	0.809565
0	H	0.25548	0.461705	0.480451
0	H	0.526224	0.792037	0.144323
0	H	0.726773	0.197352	0.21328
0	H	0.458437	0.255298	0.539528
0	H	0.789165	0.527465	0.873076
0	H	0.0669633	0.670817	0.89117
0	H	0.31712	0.390274	0.560659
0	H	0.600365	0.923656	0.229758
0	H	0.668503	0.0655113	0.128413
0	H	0.388588	0.318282	0.458215
0	H	0.921502	0.599765	0.791112
0	C	0.221894	0.791544	0.19502
0	C	0.196674	0.42338	0.867775
0	C	0.565771	0.767382	0.530737
0	C	0.790719	0.222049	0.826872
0	C	0.421692	0.196201	0.154265
0	C	0.76625	0.565293	0.48677
0	H	0.251385	0.801925	0.335351
0	H	0.187595	0.442386	0.00886092
0	H	0.547261	0.738481	0.67138
0	H	0.80093	0.25067	0.686155
0	H	0.440497	0.18623	0.0135123
0	H	0.737665	0.54617	0.346034
0	H	0.155148	0.806889	0.197411
0	H	0.182333	0.341545	0.869163
0	H	0.647655	0.834391	0.532088
0	H	0.806023	0.155101	0.825996
0	H	0.340129	0.182172	0.152384
0	H	0.833054	0.647386	0.485031
0	H	0.28554	0.854915	0.112923
0	H	0.131915	0.422942	0.788993
0	H	0.565393	0.70335	0.449457
0	H	0.854113	0.286234	0.908096
0	H	0.421049	0.131801	0.234834
0	H	0.701952	0.565105	0.566758
0	B	0.123789	0.561268	0.450906
0	B	0.426342	0.55758	0.117932
0	B	0.433304	0.863339	0.789253
0	B	0.560551	0.124504	0.569889
0	B	0.556297	0.42568	0.900799
0	B	0.862703	0.433033	0.232611
0	B	0.0811881	0.572695	0.246871
0	B	0.415603	0.503587	0.914221
0	B	0.485823	0.906417	0.584721
0	B	0.572322	0.0821618	0.77386
0	B	0.502666	0.415473	0.104635
0	B	0.90602	0.486121	0.436737
0	B	0.0608903	0.44812	0.326475
0	B	0.539728	0.607982	0.994434
0	B	0.380708	0.924649	0.665964
0	B	0.44768	0.0613864	0.694775
0	B	0.607652	0.539238	0.0243742
0	B	0.924396	0.380852	0.355621
0	B	0.980555	0.456637	0.15452
0	B	0.532127	0.519712	0.822507
0	B	0.467587	0.00572328	0.492947
0	B	0.456653	0.98134	0.866775
0	B	0.519565	0.532438	0.196285
0	B	0.00532252	0.468083	0.528362
0	B	0.0295615	0.596792	0.44695
0	B	0.391639	0.427896	0.114123
0	B	0.562154	0.95942	0.783792
0	B	0.59624	0.0302781	0.574004
0	B	0.427094	0.39191	0.904448
0	B	0.958527	0.562213	0.237211
0	H	0.209659	0.604696	0.514469
0	H	0.382861	0.600278	0.180761
0	H	0.392795	0.777525	0.85334
0	H	0.604022	0.210435	0.50614
0	H	0.597655	0.381025	0.837286
0	H	0.776846	0.391467	0.169153
0	H	0.106072	0.400958	0.294134
0	H	0.586372	0.700332	0.96223
0	H	0.288316	0.87753	0.635177
0	H	0.400492	0.106518	0.727286
0	H	0.699929	0.5855	0.0564734
0	H	0.877865	0.288384	0.386934
0	H	0.987295	0.430461	0.0057946
0	H	0.558325	0.552824	0.673933
0	H	0.433694	0.997943	0.344788
0	H	0.430606	0.988223	0.0155169
0	H	0.552732	0.558688	0.344796
0	H	0.997676	0.434401	0.676669
0	H	0.0451997	0.676579	0.517797
0	H	0.312525	0.363204	0.185577
0	H	0.627662	0.945517	0.853041
0	H	0.675938	0.0458709	0.503422
0	H	0.362439	0.312365	0.834291
0	H	0.944912	0.627558	0.166411
