#******************************************
#
# CIF file created by Zeo++
# Zeo++ is an open source package to
# analyze microporous materials
#
#*******************************************

_cell_length_a		8.10859(0)
_cell_length_b		14.515(0)
_cell_length_c		17.2458(0)
_cell_angle_alpha		64.6844(0)
_cell_angle_beta		81.4799(0)
_cell_angle_gamma		76.4344(0)

_symmetry_space_group_name_H-M		'P1'
_symmetry_Int_Tables_number		1
_symmetry_cell_setting		Triclinic

loop_
_symmetry_equiv_pos_as_xyz
'+x,+y,+z'

loop_
_atom_site_label
_atom_site_type_symbol
_atom_site_fract_x
_atom_site_fract_y
_atom_site_fract_z
0	Si	0.803699	0.55885	0.185452
0	Si	0.196453	0.437346	0.816205
0	C	0.563969	0.8914	0.049111
0	C	0.436222	0.10484	0.952626
0	C	0.398051	0.936646	0.0691798
0	C	0.602126	0.0595933	0.932555
0	C	0.290953	0.87748	0.138206
0	C	0.709208	0.118762	0.863507
0	H	0.341396	0.795075	0.174465
0	H	0.658755	0.201153	0.827227
0	C	0.131493	0.921494	0.158684
0	C	0.868637	0.0747306	0.843022
0	C	0.0651043	0.0305705	0.108811
0	C	0.935052	0.965649	0.892881
0	C	0.164004	0.0880346	0.0423593
0	C	0.836115	0.908171	0.959309
0	H	0.115124	0.170184	0.00404985
0	H	0.884933	0.826021	0.997563
0	C	0.666693	0.952007	0.981257
0	C	0.333445	0.0442176	0.0204433
0	C	0.629941	0.784584	0.096039
0	C	0.370223	0.211638	0.905653
0	C	0.692109	0.693459	0.133743
0	C	0.308012	0.302733	0.867851
0	C	0.0411299	0.558444	0.159078
0	C	0.958948	0.437763	0.842578
0	H	0.108442	0.477363	0.19855
0	H	0.89165	0.518838	0.803095
0	C	0.0986724	0.633995	0.185407
0	C	0.901421	0.362223	0.816237
0	H	0.23691	0.628279	0.175332
0	H	0.763195	0.367886	0.826364
0	H	0.0665474	0.619262	0.253256
0	H	0.93343	0.377036	0.74837
0	H	0.0415287	0.715308	0.14743
0	H	0.958656	0.280905	0.854158
0	C	0.0913679	0.582118	0.0640736
0	C	0.908662	0.414098	0.937577
0	H	0.014671	0.654098	0.0204588
0	H	0.985224	0.342041	0.981184
0	H	0.0808168	0.519077	0.047066
0	H	0.919387	0.477081	0.954619
0	H	0.224142	0.592451	0.0489051
0	H	0.775835	0.40389	0.952695
0	C	0.733484	0.480166	0.136042
0	C	0.266633	0.516009	0.865636
0	H	0.805411	0.500884	0.0713168
0	H	0.194699	0.495335	0.930353
0	C	0.784322	0.362697	0.187348
0	C	0.215807	0.633467	0.814276
0	H	0.713828	0.335643	0.249858
0	H	0.286119	0.660473	0.751711
0	H	0.920558	0.337775	0.198839
0	H	0.0795287	0.65837	0.802885
0	H	0.756823	0.320155	0.152561
0	H	0.243492	0.676059	0.848979
0	C	0.543574	0.511428	0.119594
0	C	0.456556	0.484725	0.88207
0	H	0.510395	0.468027	0.0871548
0	H	0.489761	0.528029	0.914592
0	H	0.506333	0.594341	0.0782382
0	H	0.493831	0.401779	0.923332
0	H	0.462963	0.495407	0.179269
0	H	0.537102	0.500854	0.822368
0	C	0.75481	0.517735	0.305951
0	C	0.245245	0.478499	0.695697
0	H	0.783411	0.582751	0.318452
0	H	0.216657	0.413455	0.683232
0	C	0.867351	0.416143	0.361789
0	C	0.132693	0.580063	0.639841
0	H	0.835083	0.397585	0.430292
0	H	0.164973	0.598608	0.571341
0	H	0.00269097	0.42049	0.350348
0	H	0.997364	0.575699	0.651278
0	H	0.851442	0.349908	0.350487
0	H	0.148576	0.646317	0.651131
0	C	0.566157	0.513498	0.330351
0	C	0.433931	0.482744	0.671266
0	H	0.531365	0.448151	0.324319
0	H	0.468603	0.547844	0.677377
0	H	0.482425	0.584755	0.290156
0	H	0.517597	0.411397	0.711362
0	H	0.535484	0.503549	0.397327
0	H	0.464438	0.492819	0.604252
0	C	0.0284631	0.858936	0.232331
0	C	0.971612	0.137289	0.769338
0	C	0.0924334	0.810778	0.31467
0	C	0.907638	0.185424	0.687015
0	H	0.220323	0.81535	0.323061
0	H	0.779765	0.180824	0.678627
0	C	0.991451	0.758875	0.385735
0	C	0.00862189	0.23733	0.615925
0	H	0.0425031	0.722909	0.449195
0	H	0.957586	0.273236	0.552476
0	C	0.824534	0.753648	0.376799
0	C	0.175468	0.242582	0.624851
0	C	0.765334	0.79695	0.293891
0	C	0.234723	0.199315	0.70777
0	H	0.639016	0.791708	0.283552
0	H	0.361021	0.204587	0.718112
0	C	0.865754	0.849268	0.222289
0	C	0.134336	0.14699	0.779368
0	H	0.815553	0.884264	0.158444
0	H	0.184482	0.112036	0.843225
0	C	0.71436	0.702942	0.457678
0	C	0.285654	0.293291	0.543953
0	C	0.793452	0.586789	0.50193
0	C	0.206557	0.409436	0.499675
0	H	0.925573	0.574651	0.516844
0	H	0.0743758	0.42156	0.48486
0	H	0.792424	0.546587	0.460767
0	H	0.207768	0.44969	0.540779
0	H	0.723471	0.548262	0.562503
0	H	0.276393	0.447928	0.439038
0	C	0.530409	0.713079	0.437533
0	C	0.469612	0.283143	0.564083
0	H	0.453971	0.677046	0.496488
0	H	0.545982	0.319234	0.505117
0	H	0.525423	0.674681	0.395531
0	H	0.474646	0.321478	0.60613
0	H	0.468186	0.794573	0.406235
0	H	0.531849	0.201639	0.595317
0	C	0.7092	0.756962	0.518365
0	C	0.290775	0.239259	0.483286
0	H	0.662807	0.840778	0.486021
0	H	0.337332	0.155456	0.515593
0	H	0.83486	0.745682	0.540767
0	H	0.165074	0.250447	0.460968
0	H	0.624997	0.726653	0.575392
0	H	0.3748	0.269643	0.426195
0	C	0.891783	0.0798366	0.128178
0	C	0.108346	0.916415	0.873487
0	C	0.83741	0.0717761	0.211699
0	C	0.162766	0.924517	0.78996
0	H	0.924811	0.0303518	0.263405
0	H	0.0753617	0.965981	0.738244
0	C	0.671031	0.114653	0.229027
0	C	0.329102	0.881615	0.772637
0	H	0.630265	0.105701	0.294544
0	H	0.369846	0.890582	0.707114
0	C	0.55485	0.167724	0.163759
0	C	0.44529	0.828535	0.837894
0	C	0.611961	0.178902	0.0800316
0	C	0.388205	0.817373	0.921627
0	H	0.526437	0.220492	0.0273829
0	H	0.473746	0.775811	0.974267
0	C	0.778129	0.135311	0.0623141
0	C	0.222007	0.860903	0.939355
0	H	0.818151	0.1432	0.996843
0	H	0.181929	0.85298	0.00483305
0	C	0.369605	0.206008	0.186987
0	C	0.630503	0.790209	0.814658
0	C	0.286225	0.109594	0.233257
0	C	0.71397	0.886591	0.768362
0	H	0.295663	0.0673653	0.192505
0	H	0.704644	0.92882	0.809109
0	H	0.151218	0.131265	0.249187
0	H	0.8489	0.864881	0.752408
0	H	0.347143	0.0552005	0.292823
0	H	0.653022	0.940996	0.708805
0	C	0.361984	0.2608	0.247214
0	C	0.637989	0.735428	0.754438
0	H	0.421216	0.208341	0.307755
0	H	0.57889	0.787922	0.693872
0	H	0.230407	0.290513	0.263166
0	H	0.769522	0.705584	0.738526
0	H	0.427927	0.326683	0.216865
0	H	0.57187	0.669625	0.784757
0	C	0.270404	0.282599	0.107403
0	C	0.729705	0.713582	0.894235
0	H	0.326605	0.351807	0.0714644
0	H	0.673421	0.644408	0.930169
0	H	0.138279	0.308888	0.125786
0	H	0.86179	0.687234	0.875833
0	H	0.266064	0.246837	0.0632717
0	H	0.734152	0.749327	0.938367
