#******************************************
#
# CIF file created by Zeo++
# Zeo++ is an open source package to
# analyze microporous materials
#
#*******************************************

_cell_length_a		22.4838(0)
_cell_length_b		22.5137(0)
_cell_length_c		6.92641(0)
_cell_angle_alpha		90(0)
_cell_angle_beta		90(0)
_cell_angle_gamma		90(0)

_symmetry_space_group_name_H-M		'P1'
_symmetry_Int_Tables_number		1
_symmetry_cell_setting		Monoclinic

loop_
_symmetry_equiv_pos_as_xyz
'+x,+y,+z'

loop_
_atom_site_label
_atom_site_type_symbol
_atom_site_fract_x
_atom_site_fract_y
_atom_site_fract_z
0	S	0.919074	0.904143	0.864377
0	S	0.0744867	0.0881767	0.864195
0	S	0.905016	0.0739755	0.11427
0	S	0.0886035	0.91837	0.113993
0	S	0.918835	0.778618	0.37913
0	S	0.0747094	0.213605	0.378792
0	S	0.779594	0.0745321	0.599965
0	S	0.214012	0.917671	0.59974
0	S	0.808741	0.622093	0.284283
0	S	0.184773	0.370132	0.283995
0	S	0.622915	0.184569	0.694337
0	S	0.370597	0.807568	0.694271
0	S	0.547736	0.603583	0.118188
0	S	0.445762	0.388657	0.118229
0	S	0.60435	0.445177	0.861043
0	S	0.389146	0.547091	0.861082
0	S	0.64683	0.658744	0.629057
0	S	0.346672	0.333469	0.629019
0	S	0.659462	0.346305	0.349753
0	S	0.334014	0.645924	0.349715
0	S	0.667589	0.839592	0.839192
0	S	0.325942	0.152614	0.839229
0	S	0.840523	0.325592	0.139256
0	S	0.152934	0.666599	0.139365
0	Si	0.790007	0.521122	0.971092
0	Si	0.2035	0.471103	0.970925
0	Si	0.52176	0.20323	0.00733384
0	Si	0.471734	0.788938	0.00735401
0	Si	0.716604	0.91005	0.199113
0	Si	0.276901	0.0821488	0.199046
0	Si	0.911086	0.276666	0.779442
0	Si	0.0823662	0.715507	0.779349
0	C	0.985929	0.943611	0.858289
0	C	0.00764148	0.0487048	0.858265
0	C	0.944291	0.00705513	0.1198
0	C	0.0493392	0.985278	0.119688
0	C	0.0214978	0.922288	0.714582
0	C	0.972039	0.0699776	0.714541
0	C	0.922971	0.9715	0.263588
0	C	0.0706445	0.0207676	0.263628
0	C	0.995433	0.874046	0.607608
0	C	0.99809	0.118184	0.607357
0	C	0.874817	0.997662	0.370998
0	C	0.118764	0.994558	0.371069
0	C	0.939767	0.858447	0.669796
0	C	0.0537507	0.133811	0.669512
0	C	0.859341	0.0533225	0.30908
0	C	0.134236	0.938909	0.308995
0	C	0.901442	0.812586	0.600552
0	C	0.0920746	0.179668	0.600234
0	C	0.813554	0.0917411	0.3784
0	C	0.17998	0.900444	0.378309
0	C	0.851489	0.786865	0.676433
0	C	0.141993	0.20541	0.676269
0	C	0.787853	0.141613	0.302229
0	C	0.205587	0.850501	0.302259
0	C	0.827639	0.739401	0.560413
0	C	0.165854	0.252878	0.560256
0	C	0.740346	0.16553	0.418146
0	C	0.253064	0.826532	0.418184
0	C	0.858775	0.728949	0.394034
0	C	0.134729	0.263295	0.393821
0	C	0.729877	0.134499	0.584651
0	C	0.263612	0.857595	0.584572
0	C	0.850966	0.686297	0.24394
0	C	0.142545	0.305946	0.243686
0	C	0.68715	0.142341	0.734695
0	C	0.306325	0.84976	0.734623
0	C	0.873018	0.684987	0.0595199
0	C	0.120475	0.307233	0.0592839
0	C	0.685812	0.120261	0.91904
0	C	0.307653	0.871855	0.918942
0	C	0.85622	0.632579	0.95293
0	C	0.137286	0.35963	0.952626
0	C	0.633326	0.137049	0.0255877
0	C	0.360139	0.855089	0.0255373
0	C	0.821341	0.593692	0.053723
0	C	0.172171	0.398515	0.0534109
0	C	0.594424	0.171921	0.92476
0	C	0.39905	0.820216	0.924783
0	C	0.750724	0.484279	0.175426
0	C	0.242762	0.507896	0.175398
0	C	0.484901	0.242436	0.802903
0	C	0.508577	0.749725	0.802906
0	C	0.73738	0.537018	0.769465
0	C	0.256131	0.455198	0.76932
0	C	0.537698	0.255795	0.208922
0	C	0.4558	0.736371	0.208915
0	C	0.853324	0.474746	0.884152
0	C	0.140151	0.517446	0.884029
0	C	0.475338	0.139974	0.0942588
0	C	0.518143	0.852195	0.0942979
0	C	0.540821	0.526482	0.120458
0	C	0.452664	0.465754	0.120482
0	C	0.527152	0.452108	0.858932
0	C	0.466361	0.54015	0.858887
0	C	0.575462	0.502608	0.262351
0	C	0.417984	0.48962	0.262299
0	C	0.503227	0.417559	0.716925
0	C	0.490268	0.574658	0.716833
0	C	0.607578	0.546285	0.372892
0	C	0.385874	0.445942	0.372806
0	C	0.546933	0.385533	0.606167
0	C	0.446559	0.606669	0.606016
0	C	0.596727	0.603473	0.315726
0	C	0.396748	0.388753	0.315688
0	C	0.604211	0.396339	0.663285
0	C	0.389285	0.595886	0.663192
0	C	0.616593	0.658396	0.39558
0	C	0.3769	0.333825	0.395514
0	C	0.659179	0.376501	0.583248
0	C	0.334311	0.615707	0.583178
0	C	0.61523	0.715098	0.324462
0	C	0.37828	0.277121	0.324429
0	C	0.715977	0.377838	0.654203
0	C	0.277516	0.614349	0.654139
0	C	0.637703	0.758967	0.45677
0	C	0.355826	0.23325	0.45674
0	C	0.759855	0.355374	0.521784
0	C	0.233627	0.636801	0.521752
0	C	0.656675	0.736036	0.629122
0	C	0.336846	0.256176	0.629095
0	C	0.736851	0.336443	0.349481
0	C	0.256621	0.655753	0.349445
0	C	0.680761	0.764033	0.796392
0	C	0.312756	0.228174	0.796346
0	C	0.764862	0.312402	0.182163
0	C	0.228598	0.679784	0.182128
0	C	0.714606	0.741437	0.943481
0	C	0.278886	0.250748	0.943405
0	C	0.742261	0.278599	0.0350624
0	C	0.251198	0.713559	0.0349499
0	C	0.729747	0.784848	0.0887609
0	C	0.263752	0.207332	0.0886505
0	C	0.785731	0.26352	0.889757
0	C	0.207723	0.728624	0.889651
0	C	0.707667	0.840417	0.0550821
0	C	0.285841	0.151767	0.0549779
0	C	0.841362	0.285589	0.92345
0	C	0.152083	0.706563	0.923384
0	C	0.754815	0.965992	0.0444316
0	C	0.23869	0.0261952	0.0444251
0	C	0.967079	0.23847	0.93411
0	C	0.0263802	0.753691	0.934055
0	C	0.762084	0.890848	0.415451
0	C	0.231412	0.101344	0.41538
0	C	0.891908	0.231227	0.563105
0	C	0.10155	0.760944	0.563009
0	C	0.642024	0.938415	0.274099
0	C	0.351467	0.0537602	0.274073
0	C	0.939545	0.351107	0.704188
0	C	0.0539203	0.641065	0.70419
0	H	0.0652997	0.939388	0.67851
0	H	0.928231	0.0528636	0.678624
0	H	0.940014	0.927698	0.299363
0	H	0.0535882	0.064553	0.299537
0	H	0.0193636	0.852914	0.490033
0	H	0.974148	0.139266	0.489716
0	H	0.853649	0.973736	0.488504
0	H	0.139903	0.0184289	0.488754
0	H	0.830291	0.799709	0.811063
0	H	0.163161	0.19258	0.810965
0	H	0.800717	0.16269	0.167448
0	H	0.192668	0.829405	0.167582
0	H	0.78821	0.715216	0.605248
0	H	0.205256	0.277091	0.60519
0	H	0.716123	0.204874	0.373049
0	H	0.277194	0.787121	0.373225
0	H	0.900605	0.719043	0.994665
0	H	0.0928815	0.273177	0.99448
0	H	0.719881	0.0926655	0.983842
0	H	0.273557	0.89943	0.983707
0	H	0.871156	0.626302	0.805366
0	H	0.122344	0.365897	0.805068
0	H	0.627005	0.122095	0.173087
0	H	0.366442	0.870056	0.173044
0	H	0.7812	0.471284	0.292326
0	H	0.212239	0.520936	0.292167
0	H	0.471907	0.211967	0.686029
0	H	0.521597	0.780162	0.686002
0	H	0.715992	0.512956	0.23818
0	H	0.277404	0.479168	0.238297
0	H	0.513625	0.277093	0.740107
0	H	0.479823	0.715079	0.740132
0	H	0.728446	0.443387	0.125693
0	H	0.265119	0.548755	0.125748
0	H	0.443946	0.26469	0.85253
0	H	0.549505	0.727429	0.852568
0	H	0.694171	0.552111	0.82652
0	H	0.29933	0.440104	0.826472
0	H	0.552857	0.298922	0.151794
0	H	0.440717	0.693221	0.151779
0	H	0.729309	0.497529	0.679598
0	H	0.264218	0.494654	0.679333
0	H	0.49816	0.263902	0.298752
0	H	0.495307	0.728317	0.298947
0	H	0.754608	0.572023	0.673566
0	H	0.238904	0.420163	0.673537
0	H	0.572737	0.238567	0.304834
0	H	0.420697	0.753556	0.304666
0	H	0.837535	0.431074	0.833465
0	H	0.155917	0.561112	0.833302
0	H	0.43162	0.155706	0.144933
0	H	0.561839	0.836453	0.145163
0	H	0.877141	0.49605	0.764037
0	H	0.116332	0.496115	0.764017
0	H	0.496694	0.116158	0.214175
0	H	0.496757	0.876044	0.214098
0	H	0.885478	0.466512	0.00104247
0	H	0.107999	0.525674	0.000963421
0	H	0.467099	0.107888	0.977198
0	H	0.526439	0.884247	0.977192
0	H	0.578601	0.455577	0.295732
0	H	0.414826	0.536648	0.295622
0	H	0.45613	0.41444	0.683618
0	H	0.537366	0.577769	0.683466
0	H	0.636729	0.533391	0.490535
0	H	0.3567	0.458825	0.490393
0	H	0.534003	0.356482	0.488395
0	H	0.459488	0.635683	0.488139
0	H	0.599606	0.727462	0.181659
0	H	0.393898	0.264756	0.181616
0	H	0.72841	0.39344	0.796971
0	H	0.26509	0.598727	0.796886
0	H	0.639233	0.805647	0.417897
0	H	0.35431	0.186569	0.417886
0	H	0.806607	0.353822	0.560539
0	H	0.186874	0.638329	0.560502
0	H	0.729646	0.69579	0.954834
0	H	0.263814	0.296387	0.954747
0	H	0.696563	0.263544	0.0237056
0	H	0.296894	0.728617	0.0235393
0	H	0.756427	0.772152	0.213063
0	H	0.237041	0.220004	0.212918
0	H	0.773045	0.236873	0.765436
0	H	0.22041	0.755248	0.765266
0	H	0.729596	0.975858	0.912198
0	H	0.263862	0.0163732	0.912061
0	H	0.977036	0.263656	0.0662797
0	H	0.016427	0.728473	0.0661568
0	H	0.761236	0.00797331	0.123567
0	H	0.232353	0.98419	0.1235
0	H	0.00907202	0.232024	0.854666
0	H	0.984377	0.760161	0.854673
0	H	0.799211	0.950161	0.00065294
0	H	0.194252	0.0419721	0.000869919
0	H	0.951224	0.19414	0.977939
0	H	0.0422445	0.798009	0.977998
0	H	0.744534	0.8516	0.491681
0	H	0.248971	0.140566	0.491728
0	H	0.85259	0.248679	0.486811
0	H	0.140804	0.743434	0.486518
0	H	0.80842	0.880733	0.375456
0	H	0.185075	0.111471	0.375424
0	H	0.881856	0.184937	0.60311
0	H	0.111694	0.807214	0.603033
0	H	0.762635	0.927606	0.520339
0	H	0.230854	0.0645522	0.520155
0	H	0.928729	0.230733	0.458255
0	H	0.0646848	0.761508	0.458331
0	H	0.618139	0.906991	0.367625
0	H	0.375347	0.0851506	0.367726
0	H	0.908127	0.374859	0.610272
0	H	0.0852998	0.617314	0.610098
0	H	0.613346	0.948275	0.149488
0	H	0.380147	0.0439261	0.149439
0	H	0.949327	0.379859	0.828679
0	H	0.0441748	0.612312	0.828626
0	H	0.647675	0.979984	0.356433
0	H	0.34581	0.0121536	0.356272
0	H	0.981195	0.345419	0.622288
0	H	0.0122122	0.646748	0.622334
0	C	0.996808	0.996166	0.988918
0	C	0.496739	0.49612	0.989727
