#******************************************
#
# CIF file created by Zeo++
# Zeo++ is an open source package to
# analyze microporous materials
#
#*******************************************

_cell_length_a		19.9914(0)
_cell_length_b		19.3206(0)
_cell_length_c		7.11205(0)
_cell_angle_alpha		90(0)
_cell_angle_beta		90(0)
_cell_angle_gamma		90(0)

_symmetry_space_group_name_H-M		'P1'
_symmetry_Int_Tables_number		1
_symmetry_cell_setting		Monoclinic

loop_
_symmetry_equiv_pos_as_xyz
'+x,+y,+z'

loop_
_atom_site_label
_atom_site_type_symbol
_atom_site_fract_x
_atom_site_fract_y
_atom_site_fract_z
0	O	0.102673	0.487772	0.87972
0	O	0.60083	0.512504	0.318753
0	O	0.0170172	0.966533	0.762199
0	O	0.532231	0.995231	0.226819
0	C	0.0328473	0.492408	0.89889
0	C	0.651778	0.494247	0.441182
0	C	0.0855186	0.974454	0.722327
0	C	0.470807	0.984811	0.136578
0	C	0.863605	0.58937	0.283402
0	C	0.747512	0.370615	0.864564
0	C	0.245329	0.0986591	0.402327
0	C	0.341137	0.872984	0.825845
0	O	0.917856	0.611975	0.236216
0	O	0.696269	0.336658	0.854052
0	O	0.19169	0.115472	0.336196
0	O	0.398773	0.884302	0.78116
0	C	0.837187	0.520618	0.217997
0	C	0.783748	0.392924	0.688168
0	C	0.267841	0.0261378	0.437281
0	C	0.307172	0.910533	0.986547
0	C	0.890105	0.463848	0.226959
0	C	0.782551	0.470941	0.653586
0	C	0.215537	0.971846	0.3885
0	C	0.325053	0.986843	0.0118433
0	C	0.924672	0.457002	0.0403759
0	C	0.722441	0.508245	0.73215
0	C	0.192164	0.936875	0.564916
0	C	0.382755	0.0126581	0.89341
0	O	0.894301	0.450997	0.893171
0	O	0.719662	0.522956	0.897753
0	O	0.228339	0.909612	0.678918
0	O	0.374332	0.030515	0.731933
0	C	0.999309	0.458554	0.0344205
0	C	0.668062	0.528742	0.598945
0	C	0.117742	0.935415	0.595899
0	C	0.448713	0.0229944	0.991237
0	C	0.0351993	0.412929	0.173985
0	C	0.63061	0.593567	0.648958
0	C	0.0825776	0.882146	0.478978
0	C	0.490864	0.0809984	0.915442
0	O	0.00843156	0.392284	0.315468
0	O	0.649157	0.632449	0.771514
0	O	0.110797	0.853095	0.350714
0	O	0.47624	0.113515	0.776341
0	C	0.101986	0.39379	0.105641
0	C	0.570254	0.6043	0.532774
0	C	0.0141284	0.870176	0.5433
0	C	0.552161	0.0935695	0.0259768
0	C	0.137064	0.332247	0.178528
0	C	0.523207	0.659964	0.583337
0	C	0.975311	0.812641	0.461908
0	C	0.594013	0.154035	0.979577
0	C	0.180568	0.29781	0.0281719
0	C	0.469552	0.673982	0.437619
0	C	0.925029	0.782195	0.600252
0	C	0.645182	0.172208	0.13064
0	C	0.21767	0.344928	0.904014
0	C	0.451152	0.617636	0.309104
0	C	0.890959	0.832268	0.721843
0	C	0.67138	0.11548	0.246539
0	C	0.195031	0.411075	0.880299
0	C	0.498284	0.569461	0.263293
0	C	0.921016	0.893986	0.762793
0	C	0.632379	0.0583712	0.27421
0	C	0.131622	0.431117	0.965079
0	C	0.55907	0.565567	0.374779
0	C	0.986462	0.909549	0.683566
0	C	0.569834	0.0512666	0.171462
0	C	0.00789068	0.527775	0.721283
0	C	0.678194	0.425495	0.366097
0	C	0.114865	0.0329154	0.83989
0	C	0.442844	0.919076	0.225786
0	C	0.27992	0.326289	0.800493
0	C	0.381718	0.607048	0.237044
0	C	0.823561	0.819733	0.802652
0	C	0.739703	0.114249	0.332179
0	C	0.0129124	0.279543	0.598293
0	C	0.71049	0.6226	0.0955445
0	C	0.109029	0.774145	0.0485827
0	C	0.40697	0.115808	0.506271
0	O	0.0234169	0.505604	0.568968
0	O	0.720212	0.416604	0.248797
0	O	0.117559	0.0372497	0.0074325
0	O	0.419393	0.910147	0.378353
0	O	0.0397446	0.306213	0.720295
0	O	0.686447	0.589684	0.211035
0	O	0.0881336	0.81138	0.937903
0	O	0.417158	0.0799884	0.380254
0	O	0.132096	0.30747	0.333528
0	O	0.525469	0.694914	0.724607
0	O	0.981881	0.78873	0.306472
0	O	0.588539	0.189865	0.841128
0	C	0.372402	0.263232	0.676199
0	C	0.260184	0.630595	0.213628
0	C	0.720048	0.770678	0.881964
0	C	0.847826	0.156423	0.440278
0	O	0.367597	0.23604	0.524751
0	O	0.260973	0.612176	0.0515682
0	O	0.722152	0.754542	0.0452716
0	O	0.841091	0.16195	0.608432
0	C	0.427718	0.311374	0.730278
0	C	0.198673	0.63142	0.332324
0	C	0.665856	0.813187	0.795291
0	C	0.911091	0.132793	0.351428
0	C	0.448883	0.36825	0.598243
0	C	0.137553	0.594571	0.256041
0	C	0.638241	0.875503	0.896257
0	C	0.955084	0.0816936	0.454269
0	O	0.411177	0.392981	0.483701
0	O	0.141438	0.542765	0.162254
0	O	0.672878	0.912341	0.992935
0	O	0.933004	0.036049	0.552011
0	C	0.517849	0.394396	0.634386
0	C	0.0730755	0.624683	0.322888
0	C	0.567721	0.890935	0.843652
0	C	0.0274121	0.0911414	0.409606
0	C	0.547561	0.385824	0.800824
0	C	0.0710881	0.655504	0.490505
0	C	0.543313	0.873682	0.675549
0	C	0.0467078	0.116912	0.244327
0	C	0.5131	0.350101	0.960902
0	C	0.131378	0.66258	0.611747
0	C	0.584885	0.835079	0.536083
0	C	0.996569	0.138617	0.100501
0	O	0.530018	0.357571	0.122572
0	O	0.128619	0.666385	0.780804
0	O	0.570995	0.831379	0.370967
0	O	0.00773419	0.140461	0.933517
0	C	0.454785	0.30545	0.901946
0	C	0.19615	0.661903	0.501924
0	C	0.644965	0.799158	0.620221
0	C	0.929705	0.157992	0.183739
0	C	0.424206	0.254632	0.0384987
0	C	0.257553	0.691782	0.59247
0	C	0.684297	0.748147	0.505728
0	C	0.883414	0.204893	0.0758067
0	O	0.456776	0.222043	0.150283
0	O	0.25826	0.734019	0.716792
0	O	0.660553	0.708761	0.392818
0	O	0.902148	0.250871	0.97423
0	C	0.350514	0.252036	0.0211179
0	C	0.318462	0.65726	0.51625
0	C	0.757254	0.755072	0.545166
0	C	0.812563	0.185547	0.10737
0	C	0.314005	0.244685	0.176995
0	C	0.358845	0.627488	0.640585
0	C	0.796605	0.756081	0.394074
0	C	0.774391	0.181839	0.953531
0	O	0.281258	0.242222	0.310355
0	O	0.390706	0.59974	0.753522
0	O	0.827464	0.759095	0.256995
0	O	0.744958	0.176267	0.814917
0	C	0.176668	0.228564	0.0189099
0	C	0.446567	0.739342	0.425203
0	C	0.920469	0.712974	0.603664
0	C	0.65672	0.240157	0.155225
0	C	0.202943	0.183606	0.865639
0	C	0.40566	0.764173	0.263563
0	C	0.884073	0.668887	0.740328
0	C	0.691946	0.269917	0.320301
0	C	0.271878	0.195552	0.782943
0	C	0.341775	0.726551	0.212439
0	C	0.814426	0.688545	0.804733
0	C	0.756897	0.240043	0.392155
0	O	0.259791	0.140879	0.920891
0	O	0.340216	0.791727	0.314783
0	O	0.824276	0.636046	0.659104
0	O	0.756006	0.303886	0.2838
0	C	0.31695	0.256962	0.832174
0	C	0.326505	0.656727	0.306883
0	C	0.780707	0.756471	0.745767
0	C	0.788409	0.175347	0.305056
0	C	0.145436	0.153687	0.749691
0	C	0.449757	0.79669	0.113762
0	C	0.928559	0.619428	0.852989
0	C	0.643631	0.30412	0.455647
0	O	0.14234	0.0796395	0.714742
0	O	0.449851	0.870719	0.0869269
0	O	0.970204	0.587063	0.710185
0	O	0.643032	0.379166	0.468456
0	Cl	0.23699	0.469585	0.743922
0	Cl	0.483176	0.510415	0.0895754
0	Cl	0.883389	0.952967	0.907149
0	Cl	0.658196	0.993093	0.420006
0	H	0.830194	0.619456	0.377032
0	H	0.769784	0.385326	0.00118544
0	H	0.281833	0.139366	0.446614
0	H	0.311082	0.832243	0.756519
0	H	0.814882	0.52463	0.0734497
0	H	0.764016	0.365004	0.563182
0	H	0.285634	0.0209412	0.587371
0	H	0.318503	0.880754	0.117805
0	H	0.792394	0.504846	0.302551
0	H	0.837285	0.376284	0.700467
0	H	0.316106	0.0159295	0.360756
0	H	0.25186	0.905792	0.968619
0	H	0.866524	0.413039	0.262655
0	H	0.788849	0.48103	0.500326
0	H	0.236161	0.93132	0.293209
0	H	0.33449	0.998213	0.16363
0	H	0.926556	0.472952	0.343857
0	H	0.828054	0.495072	0.718863
0	H	0.173443	0.995551	0.307302
0	H	0.280634	0.0193867	0.974544
0	H	0.317448	0.368457	0.828173
0	H	0.366342	0.552507	0.269748
0	H	0.79233	0.867197	0.775691
0	H	0.765408	0.0660423	0.281958
0	H	0.267607	0.330913	0.64631
0	H	0.382119	0.607666	0.0787658
0	H	0.830229	0.81835	0.960507
0	H	0.733165	0.106536	0.488349
0	H	0.541708	0.419896	0.513905
0	H	0.0289791	0.617259	0.233287
0	H	0.538031	0.917113	0.95073
0	H	0.0631958	0.0749924	0.517405
0	H	0.598798	0.403308	0.831191
0	H	0.0247439	0.67519	0.552405
0	H	0.491462	0.886632	0.632267
0	H	0.100028	0.121774	0.204475
0	H	0.150787	0.198746	0.131346
0	H	0.458844	0.779593	0.529821
0	H	0.947428	0.68149	0.495298
0	H	0.637579	0.279377	0.0542636
0	H	0.28272	0.174385	0.640563
0	H	0.32078	0.731642	0.0695714
0	H	0.794863	0.666704	0.93728
0	H	0.769463	0.248109	0.54204
0	H	0.149077	0.17203	0.600346
0	H	0.435657	0.77972	0.969149
0	H	0.89886	0.578949	0.924227
0	H	0.653245	0.289349	0.606019
0	H	0.0960301	0.169403	0.808517
0	H	0.503596	0.783544	0.138479
0	H	0.961485	0.646882	0.95395
0	H	0.590465	0.292744	0.418608
