#******************************************
#
# CIF file created by Zeo++
# Zeo++ is an open source package to
# analyze microporous materials
#
#*******************************************

_cell_length_a		19.1483(0)
_cell_length_b		4.45493(0)
_cell_length_c		26.456(0)
_cell_angle_alpha		90(0)
_cell_angle_beta		100.401(0)
_cell_angle_gamma		90(0)

_symmetry_space_group_name_H-M		'P1'
_symmetry_Int_Tables_number		1
_symmetry_cell_setting		Monoclinic

loop_
_symmetry_equiv_pos_as_xyz
'+x,+y,+z'

loop_
_atom_site_label
_atom_site_type_symbol
_atom_site_fract_x
_atom_site_fract_y
_atom_site_fract_z
0	O	0.183464	0.736175	0.113951
0	O	0.340865	0.236815	0.398723
0	O	0.849251	0.264674	0.899105
0	O	0.69195	0.76379	0.614194
0	O	0.313067	0.0962192	0.116649
0	O	0.211442	0.596384	0.398083
0	O	0.719616	0.904503	0.896298
0	O	0.821206	0.402865	0.615009
0	O	0.319036	0.877062	0.886152
0	O	0.21285	0.364038	0.62844
0	O	0.713711	0.123465	0.126785
0	O	0.820228	0.641768	0.384259
0	O	0.200764	0.960349	0.863507
0	O	0.331159	0.441018	0.651879
0	O	0.831993	0.0415087	0.149731
0	O	0.702164	0.556083	0.361496
0	O	0.144211	0.135487	0.265292
0	O	0.381496	0.651782	0.245272
0	O	0.888566	0.864179	0.747695
0	O	0.651424	0.348782	0.767597
0	O	0.0224244	0.859478	0.240086
0	O	0.506566	0.395952	0.269368
0	O	0.0102453	0.141325	0.772939
0	O	0.526248	0.603692	0.74361
0	C	0.114195	0.618515	0.0958605
0	C	0.410312	0.119425	0.416046
0	C	0.918586	0.381936	0.917171
0	C	0.62256	0.881445	0.596805
0	C	0.0848908	0.741072	0.0491755
0	C	0.439889	0.232767	0.463346
0	C	0.947955	0.258758	0.963792
0	C	0.593051	0.768484	0.549457
0	H	0.0335434	0.695137	0.0264568
0	H	0.491114	0.18175	0.485726
0	H	0.999354	0.304344	0.98647
0	H	0.541873	0.820054	0.527049
0	C	0.136081	0.947491	0.0350661
0	C	0.389231	0.439411	0.477891
0	C	0.896757	0.0524259	0.977884
0	C	0.643608	0.561096	0.534999
0	C	0.137171	0.135919	0.992988
0	C	0.390399	0.629906	0.51994
0	C	0.895716	0.863692	0.0199421
0	C	0.642358	0.370012	0.493023
0	H	0.0925876	0.138175	0.960928
0	H	0.435769	0.62971	0.551376
0	H	0.940377	0.860886	0.0519454
0	H	0.597072	0.370507	0.461533
0	C	0.196483	0.320134	0.993107
0	C	0.332222	0.819783	0.519931
0	C	0.836326	0.680025	0.0198716
0	C	0.700419	0.179478	0.49317
0	C	0.254787	0.309147	0.0344477
0	C	0.272557	0.811593	0.479519
0	C	0.777935	0.691464	0.978588
0	C	0.760035	0.187462	0.533604
0	H	0.300404	0.453574	0.0332528
0	H	0.22798	0.96129	0.481323
0	H	0.732262	0.547411	0.979814
0	H	0.804472	0.0369041	0.531901
0	C	0.255724	0.118906	0.0764949
0	C	0.269629	0.618893	0.437618
0	C	0.777026	0.881595	0.936558
0	C	0.763038	0.380752	0.575436
0	C	0.195264	0.940417	0.0764599
0	C	0.329489	0.437133	0.43692
0	C	0.837506	0.0600293	0.93654
0	C	0.703289	0.563106	0.576046
0	C	0.250324	0.86321	0.89453
0	C	0.281509	0.352941	0.619998
0	C	0.782501	0.138109	0.118542
0	C	0.75167	0.64842	0.393013
0	C	0.250242	0.705885	0.943631
0	C	0.280849	0.206389	0.569964
0	C	0.782632	0.29429	0.0694756
0	C	0.752349	0.796457	0.44293
0	H	0.296988	0.744336	0.97327
0	H	0.233765	0.245974	0.540647
0	H	0.73592	0.255398	0.0397469
0	H	0.800017	0.761136	0.471994
0	C	0.197612	0.515316	0.948567
0	C	0.333309	0.0171966	0.564249
0	C	0.835231	0.484957	0.0644328
0	C	0.699224	0.981509	0.44889
0	H	0.151778	0.491223	0.917042
0	H	0.379901	0.993206	0.595107
0	H	0.881015	0.509717	0.0959818
0	H	0.652223	0.0015628	0.418316
0	C	0.331728	0.932434	0.833926
0	C	0.200772	0.403344	0.681117
0	C	0.700803	0.0675344	0.178954
0	C	0.832188	0.600003	0.331595
0	H	0.28039	0.934324	0.80689
0	H	0.252451	0.406074	0.707842
0	H	0.751929	0.0663615	0.206048
0	H	0.780634	0.597673	0.30497
0	H	0.360932	0.715686	0.828441
0	H	0.173214	0.179178	0.685727
0	H	0.67119	0.28311	0.184335
0	H	0.860046	0.823267	0.326859
0	C	0.372759	0.218739	0.831488
0	C	0.15825	0.682367	0.685158
0	C	0.660054	0.779934	0.181144
0	C	0.874317	0.31948	0.327745
0	H	0.379256	0.25579	0.791008
0	H	0.151567	0.709532	0.725844
0	H	0.653956	0.740246	0.221628
0	H	0.88094	0.290587	0.287067
0	H	0.343853	0.426892	0.84148
0	H	0.186069	0.897083	0.676178
0	H	0.689078	0.573433	0.170781
0	H	0.84615	0.105453	0.336929
0	C	0.445828	0.211333	0.866891
0	C	0.0849928	0.675283	0.649995
0	C	0.586629	0.786545	0.146064
0	C	0.947576	0.325511	0.362938
0	H	0.4707	0.975304	0.862866
0	H	0.0603926	0.43944	0.653695
0	H	0.562113	0.0207785	0.150206
0	H	0.972265	0.561241	0.359319
0	H	0.438354	0.215825	0.907473
0	H	0.0920057	0.68149	0.609277
0	H	0.593923	0.783138	0.105379
0	H	0.940458	0.319028	0.403642
0	C	0.493749	0.454756	0.856309
0	C	0.0375686	0.921394	0.66139
0	C	0.538971	0.539976	0.156725
0	C	0.994851	0.078972	0.351509
0	H	0.545222	0.453016	0.882479
0	H	0.985336	0.911383	0.636271
0	H	0.487442	0.545483	0.130586
0	H	0.047146	0.0885904	0.376556
0	H	0.473852	0.701528	0.860965
0	H	0.0579938	0.157462	0.655395
0	H	0.560371	0.302947	0.151984
0	H	0.974346	0.843107	0.357559
0	H	0.505157	0.450964	0.816976
0	H	0.0282201	0.918004	0.701367
0	H	0.527579	0.547553	0.196105
0	H	0.00410885	0.0822897	0.311512
0	C	0.346326	0.394162	0.129754
0	C	0.179039	0.895756	0.384837
0	C	0.686475	0.606344	0.883285
0	C	0.853403	0.103029	0.628227
0	H	0.372001	0.362553	0.170301
0	H	0.154791	0.867173	0.344068
0	H	0.661194	0.637365	0.842659
0	H	0.878006	0.131972	0.668912
0	H	0.307279	0.577254	0.12602
0	H	0.218334	0.0769813	0.389713
0	H	0.725403	0.423194	0.887242
0	H	0.813904	0.92267	0.623625
0	H	0.386468	0.42719	0.105621
0	H	0.137811	0.927539	0.408171
0	H	0.64598	0.573824	0.907141
0	H	0.89439	0.0694561	0.604756
0	C	0.089774	0.411217	0.131165
0	C	0.436111	0.92737	0.379261
0	C	0.942964	0.589384	0.881907
0	C	0.596693	0.0731505	0.633587
0	C	0.130343	0.375563	0.181028
0	C	0.394504	0.885502	0.329982
0	C	0.902395	0.624739	0.831988
0	C	0.638399	0.115719	0.682806
0	H	0.179626	0.502811	0.19151
0	H	0.343047	0.997817	0.320673
0	H	0.853186	0.497048	0.821472
0	H	0.689979	0.00421079	0.692079
0	C	0.10707	0.186339	0.216055
0	C	0.41945	0.70799	0.294072
0	C	0.925672	0.813883	0.796956
0	C	0.613409	0.292615	0.718813
0	C	0.041242	0.0284033	0.201487
0	C	0.487375	0.56598	0.307795
0	C	0.991429	0.972318	0.811541
0	C	0.54536	0.433554	0.705178
0	C	0.00251187	0.058581	0.15179
0	C	0.528445	0.609381	0.356434
0	C	0.0300915	0.942616	0.861259
0	C	0.504175	0.389149	0.656603
0	H	0.951812	0.942567	0.140446
0	H	0.581621	0.511598	0.366388
0	H	0.0807173	0.0592171	0.872647
0	H	0.450882	0.485799	0.64675
0	C	0.0270555	0.247748	0.116403
0	C	0.50236	0.787937	0.392379
0	C	0.00561774	0.753317	0.896646
0	C	0.530257	0.21111	0.620624
0	H	0.99632	0.270572	0.0775995
0	H	0.534487	0.821151	0.430328
0	H	0.0362944	0.730994	0.93546
0	H	0.498025	0.177112	0.582752
0	C	0.188351	0.389315	0.286285
0	C	0.334385	0.897905	0.225
0	C	0.844548	0.609918	0.726744
0	C	0.698358	0.102008	0.787879
0	H	0.202768	0.333201	0.327411
0	H	0.318153	0.837439	0.184152
0	H	0.830335	0.665342	0.68562
0	H	0.714563	0.162242	0.828732
0	H	0.15822	0.601953	0.280924
0	H	0.36294	0.114293	0.228898
0	H	0.874634	0.397726	0.73225
0	H	0.669726	0.886109	0.783948
0	H	0.236084	0.397343	0.268944
0	H	0.288121	0.900978	0.24397
0	H	0.796685	0.60216	0.743942
0	H	0.744676	0.0984413	0.768968
0	C	0.957709	0.683542	0.227603
0	C	0.569263	0.208014	0.282889
0	C	0.0749595	0.317398	0.785424
0	C	0.463392	0.790741	0.730173
0	H	0.957913	0.564588	0.264017
0	H	0.564168	0.059835	0.249221
0	H	0.0749402	0.434831	0.74895
0	H	0.468563	0.93912	0.7638
0	H	0.961095	0.526673	0.196345
0	H	0.56752	0.0795604	0.31783
0	H	0.0713209	0.475072	0.81652
0	H	0.46482	0.918768	0.695139
0	H	0.911277	0.830361	0.21758
0	H	0.617269	0.346507	0.287622
0	H	0.121349	0.170601	0.795703
0	H	0.415486	0.651575	0.725638
