#******************************************
#
# CIF file created by Zeo++
# Zeo++ is an open source package to
# analyze microporous materials
#
#*******************************************

_cell_length_a		23.4864(0)
_cell_length_b		23.4943(0)
_cell_length_c		10.317(0)
_cell_angle_alpha		90(0)
_cell_angle_beta		90(0)
_cell_angle_gamma		120.097(0)

_symmetry_space_group_name_H-M		'P1'
_symmetry_Int_Tables_number		1
_symmetry_cell_setting		Monoclinic

loop_
_symmetry_equiv_pos_as_xyz
'+x,+y,+z'

loop_
_atom_site_label
_atom_site_type_symbol
_atom_site_fract_x
_atom_site_fract_y
_atom_site_fract_z
0	O	0.47182	0.197198	0.81765
0	O	0.808775	0.279195	0.854716
0	O	0.727593	0.532371	0.83691
0	O	0.533115	0.807963	0.201602
0	O	0.197807	0.727128	0.200204
0	O	0.278324	0.472401	0.199812
0	O	0.139043	0.530726	0.164462
0	O	0.474653	0.610571	0.164179
0	O	0.395442	0.866206	0.163605
0	O	0.199697	0.141089	0.534565
0	O	0.864803	0.0608788	0.536212
0	O	0.944641	0.805358	0.535508
0	O	0.806587	0.863656	0.503215
0	O	0.141379	0.9442	0.502961
0	O	0.0615737	0.199529	0.501245
0	O	0.8671	0.473946	0.87644
0	O	0.531337	0.394606	0.872791
0	O	0.610789	0.138839	0.872086
0	C	0.41067	0.143266	0.840102
0	C	0.8622	0.269716	0.860741
0	C	0.736219	0.594612	0.850783
0	C	0.595325	0.861757	0.187422
0	C	0.143993	0.73539	0.186299
0	C	0.26973	0.410166	0.186128
0	C	0.0771693	0.476664	0.180159
0	C	0.528614	0.602621	0.178454
0	C	0.403344	0.928123	0.177285
0	C	0.261867	0.194988	0.520686
0	C	0.810829	0.068832	0.522316
0	C	0.936409	0.743297	0.521762
0	C	0.74431	0.809818	0.516414
0	C	0.195289	0.936045	0.515829
0	C	0.0697172	0.26152	0.515632
0	C	0.928888	0.528077	0.860829
0	C	0.4773	0.402331	0.857712
0	C	0.602785	0.0768581	0.858127
0	C	0.360776	0.160119	0.857533
0	C	0.845228	0.202714	0.870173
0	C	0.803235	0.64468	0.864068
0	C	0.645321	0.844888	0.173859
0	C	0.16087	0.802277	0.172603
0	C	0.202717	0.360047	0.173123
0	C	0.0269175	0.493191	0.194471
0	C	0.511998	0.535765	0.192103
0	C	0.470248	0.978519	0.191014
0	C	0.311999	0.178339	0.506609
0	C	0.82738	0.135637	0.508511
0	C	0.86952	0.693015	0.507787
0	C	0.694187	0.826501	0.530107
0	C	0.178705	0.869247	0.529468
0	C	0.136622	0.311809	0.52976
0	C	0.979282	0.511645	0.847894
0	C	0.493912	0.469235	0.844744
0	C	0.536028	0.0265646	0.842183
0	C	0.296098	0.109976	0.880914
0	C	0.895524	0.187742	0.886156
0	C	0.818076	0.709691	0.883787
0	C	0.710379	0.89512	0.154019
0	C	0.110594	0.816941	0.153234
0	C	0.187942	0.295066	0.153307
0	C	0.962067	0.442786	0.21553
0	C	0.562435	0.521367	0.212029
0	C	0.484753	0.043465	0.209819
0	C	0.376957	0.22878	0.486457
0	C	0.776941	0.150004	0.488203
0	C	0.854885	0.628084	0.487617
0	C	0.629198	0.776095	0.549947
0	C	0.229158	0.854829	0.549232
0	C	0.151219	0.376688	0.550468
0	C	0.0441655	0.562096	0.827317
0	C	0.443495	0.483688	0.825073
0	C	0.521672	0.96172	0.822453
0	C	0.279483	0.0437045	0.888715
0	C	0.961939	0.237349	0.892706
0	C	0.768474	0.726381	0.890855
0	C	0.72717	0.961442	0.14696
0	C	0.0442378	0.76718	0.146519
0	C	0.237579	0.278433	0.145952
0	C	0.945717	0.376583	0.222819
0	C	0.628761	0.571267	0.218523
0	C	0.434863	0.0597945	0.215346
0	C	0.393485	0.295068	0.480217
0	C	0.710681	0.100011	0.481486
0	C	0.904709	0.611705	0.481492
0	C	0.612602	0.709787	0.556177
0	C	0.295445	0.904785	0.555391
0	C	0.101366	0.393031	0.557021
0	C	0.0604153	0.628258	0.819269
0	C	0.377185	0.433808	0.818001
0	C	0.571595	0.94542	0.818087
0	C	0.329502	0.0284252	0.876419
0	C	0.977597	0.302966	0.883486
0	C	0.702914	0.676294	0.880145
0	C	0.677175	0.976893	0.157746
0	C	0.0287874	0.70172	0.157486
0	C	0.30313	0.328559	0.15664
0	C	0.99592	0.361498	0.21047
0	C	0.643931	0.636616	0.207049
0	C	0.369461	0.00947371	0.203939
0	C	0.343368	0.310277	0.492009
0	C	0.695538	0.0346437	0.493025
0	C	0.970143	0.661976	0.493175
0	C	0.662696	0.694528	0.544558
0	C	0.310636	0.97015	0.543824
0	C	0.0359465	0.342768	0.545134
0	C	0.010077	0.643224	0.830144
0	C	0.362046	0.368434	0.828324
0	C	0.636914	0.995672	0.831824
0	C	0.395453	0.0773359	0.852701
0	C	0.928618	0.320331	0.867078
0	C	0.68557	0.610088	0.860268
0	C	0.610942	0.927933	0.177806
0	C	0.0777687	0.684594	0.177383
0	C	0.320405	0.394732	0.176591
0	C	0.0620289	0.410644	0.189698
0	C	0.59475	0.653511	0.187616
0	C	0.352467	0.943274	0.185567
0	C	0.277201	0.261116	0.512118
0	C	0.744722	0.0178539	0.513363
0	C	0.987244	0.728083	0.513055
0	C	0.728878	0.743644	0.524798
0	C	0.261455	0.986989	0.524051
0	C	0.0188702	0.276685	0.524803
0	C	0.943932	0.594032	0.850323
0	C	0.411207	0.351474	0.84746
0	C	0.653734	0.0617556	0.851316
0	C	0.193378	0.995899	0.0590628
0	C	0.0104962	0.198107	0.0584441
0	C	0.807656	0.813578	0.0585895
0	C	0.814363	0.0100045	0.979046
0	C	0.996036	0.805886	0.978687
0	C	0.198029	0.191203	0.978216
0	C	0.860546	0.327366	0.394305
0	C	0.677633	0.533391	0.387003
0	C	0.474342	0.148251	0.381139
0	C	0.480029	0.344255	0.311428
0	C	0.661374	0.136992	0.312451
0	C	0.867627	0.524786	0.313296
0	C	0.52608	0.660719	0.724932
0	C	0.345456	0.868337	0.723958
0	C	0.138705	0.479666	0.72586
0	C	0.146704	0.677039	0.649644
0	C	0.328082	0.471675	0.650024
0	C	0.533516	0.858124	0.650119
0	C	0.207825	0.990968	0.914829
0	C	0.0146214	0.218074	0.914722
0	C	0.787708	0.798234	0.91474
0	C	0.799066	0.0142249	0.123066
0	C	0.991475	0.786157	0.122637
0	C	0.218354	0.206594	0.121892
0	C	0.874255	0.323366	0.249143
0	C	0.681922	0.552852	0.242831
0	C	0.453429	0.131568	0.237932
0	C	0.465205	0.348222	0.455907
0	C	0.657419	0.11822	0.456935
0	C	0.886326	0.540066	0.45773
0	C	0.540868	0.656681	0.580459
0	C	0.348738	0.886533	0.579275
0	C	0.119732	0.464605	0.581487
0	C	0.131974	0.681534	0.793994
0	C	0.323968	0.452191	0.794139
0	C	0.55319	0.873791	0.794116
0	C	0.161299	0.00323523	0.828961
0	C	0.00123573	0.159613	0.826741
0	C	0.846213	0.844068	0.827302
0	C	0.844954	0.00136009	0.209645
0	C	0.00429444	0.844692	0.209889
0	C	0.16009	0.160763	0.209836
0	C	0.827069	0.335347	0.164952
0	C	0.669934	0.494551	0.155749
0	C	0.510962	0.177232	0.148344
0	C	0.511464	0.335634	0.541885
0	C	0.669594	0.176892	0.543116
0	C	0.827571	0.493714	0.544074
0	C	0.494622	0.669279	0.494474
0	C	0.336053	0.827497	0.493741
0	C	0.178303	0.511101	0.494901
0	C	0.178706	0.670023	0.880721
0	C	0.335967	0.510446	0.881379
0	C	0.494908	0.827528	0.881525
0	C	0.195351	0.92138	0.88602
0	C	0.0842168	0.275183	0.8851
0	C	0.730624	0.810752	0.886033
0	C	0.811476	0.0836888	0.152905
0	C	0.92187	0.72892	0.151703
0	C	0.275526	0.194093	0.14976
0	C	0.862234	0.254038	0.218987
0	C	0.751367	0.610557	0.214139
0	C	0.395358	0.14273	0.210487
0	C	0.477264	0.417526	0.486368
0	C	0.588149	0.0605327	0.486923
0	C	0.94391	0.528561	0.488397
0	C	0.528745	0.587343	0.550134
0	C	0.417889	0.944031	0.547701
0	C	0.0620548	0.476117	0.551887
0	C	0.143601	0.750894	0.822165
0	C	0.254579	0.394432	0.823043
0	C	0.611001	0.862397	0.822873
0	C	0.520418	0.18873	0.746746
0	C	0.812929	0.329404	0.766545
0	C	0.673813	0.485434	0.756121
0	C	0.485767	0.814614	0.281135
0	C	0.191083	0.673349	0.2806
0	C	0.33213	0.519447	0.280447
0	C	0.186662	0.523823	0.0863824
0	C	0.481251	0.66516	0.0866914
0	C	0.340808	0.817869	0.0864712
0	C	0.152546	0.147462	0.615297
0	C	0.858441	0.00698497	0.615717
0	C	0.998213	0.852722	0.616135
0	C	0.853505	0.857434	0.421428
0	C	0.147418	0.997527	0.422023
0	C	0.00780805	0.152143	0.421063
0	C	0.81878	0.480928	0.951913
0	C	0.524337	0.338636	0.945886
0	C	0.663893	0.185943	0.953947
0	C	0.376722	0.226608	0.852943
0	C	0.778618	0.152216	0.863958
0	C	0.853706	0.628642	0.858628
0	C	0.629247	0.77836	0.17916
0	C	0.227462	0.852851	0.177482
0	C	0.152203	0.376015	0.179205
0	C	0.0427869	0.559647	0.188173
0	C	0.445464	0.485015	0.186373
0	C	0.520878	0.962719	0.186298
0	C	0.29609	0.111846	0.512573
0	C	0.893885	0.186352	0.514403
0	C	0.818938	0.708883	0.513718
0	C	0.710136	0.89301	0.524256
0	C	0.112198	0.818514	0.523708
0	C	0.187197	0.295941	0.523546
0	C	0.963482	0.445233	0.855192
0	C	0.560465	0.519949	0.850654
0	C	0.48538	0.0423637	0.845618
0	C	0.443849	0.0585307	0.847166
0	C	0.947405	0.38757	0.860177
0	C	0.618236	0.561585	0.854062
0	C	0.562489	0.946669	0.183624
0	C	0.0589373	0.617348	0.184179
0	C	0.387719	0.4433	0.182862
0	C	0.110592	0.392053	0.182891
0	C	0.613302	0.72069	0.181861
0	C	0.285219	0.894568	0.179955
0	C	0.228678	0.279753	0.519359
0	C	0.726149	0.950684	0.520336
0	C	0.0544889	0.776762	0.519916
0	C	0.777393	0.724997	0.517722
0	C	0.280039	0.054165	0.516777
0	C	0.951627	0.228041	0.51805
0	C	0.89529	0.612547	0.855811
0	C	0.392617	0.284264	0.851673
0	C	0.720923	0.110473	0.859432
0	H	0.257919	0.123292	0.892541
0	H	0.882171	0.136019	0.892783
0	H	0.869764	0.74805	0.893071
0	H	0.748654	0.88179	0.144689
0	H	0.123899	0.868568	0.144024
0	H	0.136264	0.256664	0.144193
0	H	0.923561	0.455802	0.225577
0	H	0.549291	0.469787	0.221814
0	H	0.536372	0.0819969	0.219475
0	H	0.415354	0.215679	0.476388
0	H	0.790021	0.201545	0.478058
0	H	0.80326	0.589656	0.477343
0	H	0.590799	0.789223	0.559927
0	H	0.21605	0.803292	0.559204
0	H	0.202836	0.415125	0.560863
0	H	0.0827329	0.549134	0.818287
0	H	0.456648	0.535288	0.815863
0	H	0.470115	0.923222	0.811126
0	H	0.318634	0.977599	0.886059
0	H	0.0287374	0.342694	0.890047
0	H	0.663087	0.687388	0.88812
0	H	0.688368	0.0278762	0.149597
0	H	0.977778	0.66181	0.149717
0	H	0.342986	0.317509	0.148603
0	H	0.98493	0.310563	0.217635
0	H	0.694917	0.676707	0.213912
0	H	0.32938	0.0203272	0.209976
0	H	0.354354	0.361216	0.484794
0	H	0.644603	0.994545	0.485301
0	H	0.010118	0.651049	0.486017
0	H	0.651638	0.643554	0.551704
0	H	0.361614	0.0102295	0.551117
0	H	0.995954	0.353653	0.552448
0	H	0.0209744	0.694113	0.822261
0	H	0.311094	0.328355	0.820709
0	H	0.677018	0.984836	0.82681
0	H	0.225885	0.987278	0.12212
0	H	0.0189363	0.238903	0.122431
0	H	0.766488	0.781659	0.122349
0	H	0.78194	0.0185245	0.915532
0	H	0.987583	0.764925	0.915189
0	H	0.239156	0.222802	0.914075
0	H	0.894683	0.320106	0.455212
0	H	0.685091	0.574139	0.450147
0	H	0.434131	0.115725	0.446218
0	H	0.446467	0.351602	0.248915
0	H	0.653833	0.0959555	0.250061
0	H	0.908576	0.558477	0.250777
0	H	0.559628	0.653348	0.787443
0	H	0.352345	0.90927	0.785951
0	H	0.0977139	0.446132	0.788459
0	H	0.113491	0.684849	0.586976
0	H	0.320729	0.431001	0.586775
0	H	0.574193	0.891253	0.586542
0	H	0.200585	0.0445619	0.0826511
0	H	0.962094	0.156154	0.0822776
0	H	0.848922	0.806132	0.0824805
0	H	0.807685	0.961598	0.955051
0	H	0.044573	0.847676	0.95501
0	H	0.156988	0.199072	0.954655
0	H	0.866106	0.375185	0.419345
0	H	0.629613	0.490892	0.410659
0	H	0.516886	0.14281	0.404046
0	H	0.474403	0.296299	0.287337
0	H	0.709373	0.179372	0.288069
0	H	0.824958	0.529702	0.288554
0	H	0.531765	0.708712	0.748961
0	H	0.297934	0.825466	0.748889
0	H	0.181158	0.474289	0.750168
0	H	0.140532	0.628855	0.625709
0	H	0.37601	0.514281	0.626291
0	H	0.491012	0.863481	0.626303
0	H	0.142531	0.959343	0.0837982
0	H	0.047564	0.184407	0.0817504
0	H	0.822504	0.864632	0.0821159
0	H	0.865237	0.046964	0.95533
0	H	0.959166	0.819729	0.954536
0	H	0.182678	0.140017	0.954854
0	H	0.81048	0.289231	0.420463
0	H	0.71542	0.520851	0.411544
0	H	0.487525	0.198966	0.403827
0	H	0.530355	0.382119	0.286367
0	H	0.623537	0.149388	0.287506
0	H	0.85572	0.474585	0.288883
0	H	0.475737	0.622907	0.75001
0	H	0.384061	0.857009	0.74899
0	H	0.151082	0.529959	0.750504
0	H	0.1972	0.714518	0.624729
0	H	0.290135	0.484026	0.625688
0	H	0.520816	0.807651	0.626276
0	H	0.165755	0.0511179	0.848093
0	H	0.953312	0.116145	0.846391
0	H	0.889756	0.839787	0.846285
0	H	0.840432	0.953488	0.189991
0	H	0.0521776	0.888253	0.190547
0	H	0.116436	0.164906	0.191255
0	H	0.831978	0.383503	0.182974
0	H	0.62189	0.450905	0.173212
0	H	0.555042	0.173794	0.166436
0	H	0.507451	0.288041	0.521486
0	H	0.717087	0.220813	0.523038
0	H	0.783729	0.497267	0.523824
0	H	0.498599	0.71685	0.514927
0	H	0.288445	0.783814	0.514292
0	H	0.222247	0.507667	0.514749
0	H	0.174421	0.622085	0.863377
0	H	0.383942	0.554147	0.863713
0	H	0.451209	0.831652	0.86354
0	H	0.171971	0.00185855	0.725525
0	H	0.00175673	0.172298	0.723898
0	H	0.833563	0.832525	0.724253
0	H	0.833708	0.00230305	0.312877
0	H	0.00346908	0.832195	0.312937
0	H	0.172962	0.172438	0.312768
0	H	0.836649	0.33304	0.0610715
0	H	0.671887	0.507354	0.0525563
0	H	0.497592	0.164669	0.0458957
0	H	0.499908	0.335945	0.645156
0	H	0.669055	0.164867	0.646378
0	H	0.83961	0.505425	0.647261
0	H	0.506124	0.668917	0.39118
0	H	0.336448	0.839262	0.39037
0	H	0.166141	0.49943	0.39173
0	H	0.168014	0.672066	0.983983
0	H	0.334168	0.497623	0.984525
0	H	0.507692	0.838795	0.984614
0	H	0.109886	0.965636	0.844908
0	H	0.0387602	0.145536	0.839661
0	H	0.860188	0.895594	0.841593
0	H	0.8965	0.0389138	0.194932
0	H	0.966646	0.858513	0.195882
0	H	0.146186	0.109248	0.195675
0	H	0.775742	0.298016	0.182805
0	H	0.707446	0.480692	0.171499
0	H	0.524364	0.228681	0.161207
0	H	0.562903	0.373647	0.527747
0	H	0.631397	0.189951	0.528801
0	H	0.814351	0.442365	0.530201
0	H	0.443182	0.631264	0.508634
0	H	0.374055	0.814179	0.508123
0	H	0.191415	0.562406	0.508959
0	H	0.230077	0.707705	0.86448
0	H	0.298357	0.524203	0.865975
0	H	0.48111	0.776099	0.866533
0	H	0.143599	0.884059	0.901244
0	H	0.121329	0.260377	0.897997
0	H	0.745477	0.862636	0.900269
0	H	0.863318	0.121042	0.138863
0	H	0.884647	0.743479	0.137685
0	H	0.260559	0.142157	0.135707
0	H	0.810467	0.216521	0.232986
0	H	0.788835	0.596307	0.227491
0	H	0.40941	0.194441	0.223451
0	H	0.529057	0.455062	0.472661
0	H	0.550454	0.0744236	0.473033
0	H	0.929811	0.47685	0.474999
0	H	0.476962	0.549834	0.564036
0	H	0.45558	0.930081	0.560921
0	H	0.0760951	0.527761	0.566091
0	H	0.195345	0.788505	0.808375
0	H	0.217071	0.408676	0.810278
0	H	0.596919	0.810701	0.809441
0	H	0.207177	0.916854	0.784953
0	H	0.0882642	0.292105	0.784557
0	H	0.713836	0.798494	0.78528
0	H	0.799099	0.0877404	0.253814
0	H	0.91753	0.712194	0.25246
0	H	0.292685	0.206503	0.250285
0	H	0.874581	0.250115	0.118004
0	H	0.755586	0.627576	0.113629
0	H	0.377708	0.129402	0.110412
0	H	0.464782	0.421274	0.587394
0	H	0.584319	0.0441721	0.58786
0	H	0.960257	0.541309	0.58931
0	H	0.54113	0.583512	0.44908
0	H	0.421188	0.960015	0.44661
0	H	0.0455882	0.463658	0.450969
0	H	0.130853	0.755249	0.922627
0	H	0.250535	0.377293	0.923418
0	H	0.627994	0.875278	0.923404
0	H	0.224544	0.908015	0.948702
0	H	0.0983667	0.317525	0.948985
0	H	0.688169	0.782065	0.949446
0	H	0.782665	0.0974247	0.0899533
0	H	0.908114	0.686501	0.0882889
0	H	0.317738	0.222647	0.0857133
0	H	0.891246	0.240506	0.281814
0	H	0.764819	0.652664	0.278251
0	H	0.353692	0.113996	0.275681
0	H	0.448394	0.431237	0.42353
0	H	0.57473	0.0180628	0.423845
0	H	0.986421	0.557506	0.425223
0	H	0.557644	0.573644	0.612928
0	H	0.431701	0.986746	0.61031
0	H	0.0196226	0.446943	0.61509
0	H	0.114693	0.763958	0.757961
0	H	0.241033	0.352397	0.758672
0	H	0.653105	0.891332	0.758784
0	H	0.546748	0.173862	0.814589
0	H	0.833705	0.37629	0.819542
0	H	0.629433	0.458863	0.816459
0	H	0.459116	0.831849	0.219743
0	H	0.173778	0.629255	0.219675
0	H	0.376368	0.54621	0.219795
0	H	0.21376	0.507765	0.149445
0	H	0.49738	0.708264	0.15005
0	H	0.297667	0.791008	0.14988
0	H	0.125636	0.164738	0.55484
0	H	0.841548	0.963144	0.554214
0	H	0.0423413	0.879921	0.555414
0	H	0.880325	0.839681	0.480914
0	H	0.164904	0.0418838	0.482224
0	H	0.963741	0.125084	0.481995
0	H	0.791984	0.496539	0.886962
0	H	0.509292	0.296924	0.879188
0	H	0.708329	0.213442	0.894091
0	H	0.497912	0.153079	0.668226
0	H	0.842264	0.333984	0.680933
0	H	0.66505	0.509506	0.674247
0	H	0.509429	0.847821	0.362797
0	H	0.157815	0.664035	0.362032
0	H	0.341204	0.495441	0.362028
0	H	0.163103	0.489528	0.00626647
0	H	0.515329	0.676247	0.00605907
0	H	0.329773	0.840634	0.00544485
0	H	0.176433	0.180571	0.696993
0	H	0.825084	0.997073	0.697226
0	H	0.00775117	0.829012	0.697597
0	H	0.829415	0.824765	0.339269
0	H	0.180174	0.00662479	0.339803
0	H	0.998249	0.175812	0.339559
0	H	0.841647	0.515569	0.0317946
0	H	0.489335	0.325645	0.0254808
0	H	0.673144	0.161931	0.0351958
0	H	0.552664	0.238411	0.708938
0	H	0.76125	0.310683	0.741167
0	H	0.691913	0.452971	0.723611
0	H	0.453505	0.763978	0.314081
0	H	0.241684	0.691869	0.31382
0	H	0.31384	0.551683	0.313422
0	H	0.218411	0.574086	0.0510484
0	H	0.430827	0.646408	0.05205
0	H	0.35947	0.786108	0.052347
0	H	0.120488	0.0968019	0.648218
0	H	0.909089	0.0258236	0.648975
0	H	0.979297	0.8844	0.649381
0	H	0.885721	0.908218	0.389355
0	H	0.096585	0.978642	0.389967
0	H	0.026546	0.12031	0.387842
0	H	0.786978	0.430761	0.987728
0	H	0.57444	0.357096	0.982237
0	H	0.644813	0.217456	0.987323
