#******************************************
#
# CIF file created by Zeo++
# Zeo++ is an open source package to
# analyze microporous materials
#
#*******************************************

_cell_length_a		16.3705(0)
_cell_length_b		16.9957(0)
_cell_length_c		30.2392(0)
_cell_angle_alpha		90(0)
_cell_angle_beta		107.755(0)
_cell_angle_gamma		90(0)

_symmetry_space_group_name_H-M		'P1'
_symmetry_Int_Tables_number		1
_symmetry_cell_setting		Monoclinic

loop_
_symmetry_equiv_pos_as_xyz
'+x,+y,+z'

loop_
_atom_site_label
_atom_site_type_symbol
_atom_site_fract_x
_atom_site_fract_y
_atom_site_fract_z
0	Si	0.117095	0.490802	0.884698
0	Si	0.999583	0.523604	0.118291
0	Si	0.623377	0.972834	0.884437
0	Si	0.490631	0.996086	0.11642
0	Si	0.926843	0.947884	0.61553
0	Si	0.183744	0.948003	0.384518
0	Si	0.426079	0.449819	0.615027
0	Si	0.684696	0.450508	0.385015
0	O	0.190178	0.557688	0.885354
0	O	0.924794	0.587347	0.118185
0	O	0.696149	0.0405423	0.885274
0	O	0.417389	0.0626006	0.115611
0	C	0.826752	0.710162	0.58251
0	C	0.284588	0.709675	0.417019
0	C	0.323142	0.213693	0.583725
0	C	0.788366	0.214292	0.416363
0	H	0.841909	0.748583	0.556069
0	H	0.269682	0.74761	0.443744
0	H	0.337248	0.252265	0.557021
0	H	0.773969	0.252722	0.44303
0	C	0.778409	0.754822	0.610999
0	C	0.33257	0.755067	0.388624
0	C	0.275908	0.258429	0.612766
0	C	0.8355	0.259352	0.38739
0	H	0.762594	0.711735	0.635483
0	H	0.348335	0.712482	0.363876
0	H	0.261701	0.215708	0.637925
0	H	0.849697	0.216849	0.36213
0	C	0.832192	0.820192	0.641798
0	C	0.278609	0.820716	0.358182
0	C	0.330637	0.324453	0.642523
0	C	0.780637	0.325441	0.357759
0	H	0.892742	0.793398	0.665297
0	H	0.218249	0.793971	0.334464
0	H	0.391053	0.297778	0.666243
0	H	0.720515	0.298642	0.33383
0	C	0.78222	0.863552	0.669511
0	C	0.328472	0.865221	0.330872
0	C	0.282096	0.37055	0.669918
0	C	0.829068	0.372467	0.330716
0	H	0.826169	0.894797	0.699202
0	H	0.28439	0.896221	0.301092
0	H	0.327054	0.401138	0.69955
0	H	0.784018	0.402898	0.301039
0	H	0.743326	0.822867	0.683079
0	H	0.368286	0.825366	0.3174
0	H	0.241398	0.331906	0.683539
0	H	0.870455	0.334584	0.317134
0	H	0.738916	0.907662	0.648048
0	H	0.370926	0.909651	0.352553
0	H	0.240558	0.415529	0.648218
0	H	0.86991	0.417653	0.352611
0	C	0.776221	0.636592	0.559452
0	C	0.335395	0.635971	0.439672
0	C	0.27252	0.140081	0.560962
0	C	0.839227	0.140794	0.439137
0	H	0.813011	0.600317	0.541215
0	H	0.298707	0.599039	0.457639
0	H	0.308561	0.104325	0.542087
0	H	0.803234	0.104692	0.457867
0	C	0.694215	0.783914	0.576195
0	C	0.416817	0.784004	0.423476
0	C	0.190481	0.286906	0.578822
0	C	0.920946	0.2878	0.421337
0	H	0.708544	0.8244	0.550801
0	H	0.402508	0.824252	0.448987
0	H	0.203129	0.328112	0.553283
0	H	0.90829	0.328993	0.446884
0	H	0.65741	0.819195	0.594361
0	H	0.453524	0.819516	0.405348
0	H	0.1543	0.321307	0.597752
0	H	0.957106	0.322232	0.402396
0	C	0.687432	0.659167	0.527703
0	C	0.423945	0.658767	0.471632
0	C	0.182974	0.162316	0.530028
0	C	0.928583	0.163284	0.47019
0	H	0.649034	0.605	0.515806
0	H	0.462594	0.604746	0.483554
0	H	0.144686	0.108	0.518505
0	H	0.966993	0.109086	0.4819
0	H	0.694471	0.687071	0.495796
0	H	0.416502	0.686442	0.503508
0	H	0.188786	0.190278	0.497886
0	H	0.92248	0.191399	0.502224
0	C	0.639742	0.714026	0.551776
0	C	0.471463	0.714073	0.447709
0	C	0.135868	0.216952	0.554548
0	C	0.975632	0.217868	0.445612
0	H	0.580264	0.736229	0.525704
0	H	0.530867	0.736271	0.473843
0	H	0.0761611	0.239087	0.528801
0	H	0.0353728	0.240001	0.471319
0	H	0.618225	0.67959	0.57737
0	H	0.493074	0.679993	0.422021
0	H	0.115072	0.182418	0.580376
0	H	0.996341	0.183303	0.419767
0	O	0.858983	0.876409	0.614312
0	O	0.251303	0.876221	0.385891
0	O	0.357822	0.378593	0.613984
0	O	0.752793	0.378991	0.386367
0	O	0.76405	0.59038	0.598379
0	O	0.347834	0.590623	0.400494
0	O	0.26238	0.0931075	0.600099
0	O	0.849555	0.0942602	0.399894
0	O	0.803421	0.478309	0.570109
0	O	0.313828	0.477006	0.429551
0	O	0.299517	0.98182	0.570027
0	O	0.817366	0.981739	0.430823
0	O	0.786129	0.300776	0.776247
0	O	0.329618	0.303687	0.221582
0	O	0.276635	0.796748	0.773341
0	O	0.829646	0.800287	0.224716
0	O	0.804886	0.41516	0.808853
0	O	0.304619	0.418207	0.189347
0	O	0.306863	0.908128	0.808819
0	O	0.804275	0.913045	0.190441
0	C	0.783933	0.512038	0.600713
0	C	0.331035	0.511653	0.398541
0	C	0.281578	0.0146708	0.601379
0	C	0.832916	0.0153414	0.399001
0	C	0.788907	0.360625	0.692521
0	C	0.324129	0.361653	0.305662
0	C	0.280559	0.85967	0.69041
0	C	0.830118	0.861947	0.308499
0	H	0.794246	0.296661	0.697018
0	H	0.317934	0.297777	0.300746
0	H	0.280923	0.79542	0.693294
0	H	0.828414	0.79775	0.305021
0	C	0.786024	0.395242	0.650309
0	C	0.327684	0.395617	0.348159
0	C	0.278216	0.896054	0.64875
0	C	0.833793	0.897508	0.350582
0	H	0.789528	0.358811	0.621052
0	H	0.323902	0.358759	0.377202
0	H	0.277092	0.860732	0.618266
0	H	0.834689	0.861625	0.38082
0	C	0.779982	0.477468	0.645422
0	C	0.334792	0.477704	0.353639
0	C	0.27856	0.978616	0.64595
0	C	0.835096	0.979989	0.354107
0	C	0.786102	0.409163	0.729645
0	C	0.327326	0.410732	0.268852
0	C	0.283645	0.90669	0.729108
0	C	0.827402	0.909732	0.270157
0	C	0.774836	0.525207	0.682205
0	C	0.340609	0.525925	0.317176
0	C	0.279798	0.0249759	0.684413
0	C	0.834558	0.027076	0.316022
0	H	0.769597	0.589311	0.677895
0	H	0.346779	0.589893	0.321967
0	H	0.279781	0.0893939	0.681822
0	H	0.836005	0.0914208	0.319274
0	C	0.778284	0.49107	0.72484
0	C	0.336363	0.492493	0.274259
0	C	0.282579	0.989035	0.726473
0	C	0.830466	0.992001	0.273553
0	H	0.776633	0.528377	0.754224
0	H	0.338335	0.530209	0.245119
0	H	0.285297	0.0252011	0.757016
0	H	0.828172	0.0286745	0.243279
0	O	0.909085	0.685489	0.615548
0	O	0.202072	0.685173	0.384103
0	O	0.406218	0.189196	0.616216
0	O	0.705492	0.189494	0.383793
0	O	0.957274	0.654579	0.555252
0	O	0.154593	0.654152	0.444632
0	O	0.45323	0.160232	0.555232
0	O	0.658385	0.159992	0.44468
0	O	0.299494	0.570347	0.769259
0	O	0.810005	0.571864	0.231408
0	O	0.800567	0.0797572	0.767624
0	O	0.310017	0.0800389	0.2326
0	O	0.358674	0.634007	0.725306
0	O	0.752046	0.638007	0.274965
0	O	0.858097	0.143085	0.722742
0	O	0.254718	0.150429	0.275681
0	C	0.971086	0.660777	0.59683
0	C	0.140294	0.660586	0.403031
0	C	0.467976	0.16614	0.5969
0	C	0.643746	0.166057	0.403027
0	C	0.0538084	0.645609	0.633621
0	C	0.0572321	0.645923	0.366428
0	C	0.551732	0.152222	0.633146
0	C	0.560106	0.152167	0.366704
0	C	0.0575886	0.632129	0.679866
0	C	0.0529749	0.63235	0.32013
0	C	0.557178	0.139584	0.679707
0	C	0.55495	0.138634	0.320274
0	H	0.998776	0.63388	0.690169
0	H	0.111636	0.633232	0.309687
0	H	0.49899	0.141209	0.690575
0	H	0.613346	0.138882	0.309592
0	C	0.136899	0.617257	0.712849
0	C	0.973345	0.61833	0.287237
0	C	0.637266	0.125719	0.712172
0	C	0.474837	0.125668	0.287605
0	H	0.140615	0.604302	0.749064
0	H	0.969303	0.605677	0.2509
0	H	0.642588	0.113528	0.748591
0	H	0.469996	0.113202	0.25118
0	C	0.128433	0.645279	0.619881
0	C	0.982792	0.6463	0.380349
0	C	0.625536	0.152203	0.618666
0	C	0.486028	0.153428	0.38095
0	H	0.123982	0.654902	0.583328
0	H	0.98759	0.655927	0.416943
0	H	0.619841	0.161393	0.581924
0	H	0.491505	0.162976	0.417637
0	C	0.207974	0.632532	0.652764
0	C	0.902991	0.634255	0.347585
0	C	0.705859	0.140304	0.651028
0	C	0.405754	0.142403	0.348412
0	H	0.267023	0.632516	0.642558
0	H	0.844063	0.634748	0.3579
0	H	0.764207	0.140455	0.640166
0	H	0.347222	0.143673	0.359082
0	C	0.21116	0.618946	0.699038
0	C	0.899314	0.620732	0.301231
0	C	0.710666	0.12734	0.697572
0	C	0.401215	0.12899	0.301928
0	C	0.871821	0.0442496	0.596841
0	C	0.238729	0.0444379	0.403015
0	C	0.370004	0.545889	0.59698
0	C	0.74063	0.546617	0.403114
0	C	0.790945	0.0480778	0.563161
0	C	0.319625	0.048362	0.436671
0	C	0.289054	0.548573	0.563287
0	C	0.821592	0.549449	0.43679
0	H	0.755106	0.994313	0.550053
0	H	0.355484	0.994627	0.449843
0	H	0.254344	0.494289	0.550146
0	H	0.856362	0.495219	0.450011
0	C	0.915864	0.114915	0.612589
0	C	0.19467	0.115059	0.387165
0	C	0.41251	0.617103	0.612919
0	C	0.69803	0.61776	0.387101
0	H	0.979227	0.114843	0.638729
0	H	0.131309	0.11489	0.361053
0	H	0.475752	0.617757	0.639138
0	H	0.634777	0.618312	0.360899
0	C	0.879946	0.187513	0.595155
0	C	0.23058	0.187716	0.404483
0	C	0.375081	0.689206	0.595526
0	C	0.735389	0.689948	0.404376
0	H	0.915181	0.241429	0.608032
0	H	0.195366	0.241615	0.391539
0	H	0.409079	0.74365	0.6084
0	H	0.701316	0.744322	0.391413
0	C	0.0850611	0.872843	0.743159
0	C	0.0249594	0.873423	0.256894
0	C	0.588749	0.373232	0.741089
0	C	0.523404	0.374194	0.258563
0	H	0.119432	0.818637	0.756284
0	H	0.99056	0.81923	0.243743
0	H	0.625622	0.319971	0.753305
0	H	0.487094	0.32068	0.246178
0	C	0.994536	0.948962	0.678086
0	C	0.115988	0.949265	0.321947
0	C	0.49516	0.449802	0.677271
0	C	0.616172	0.450789	0.322648
0	C	0.992585	0.00947475	0.709283
0	C	0.117708	0.00989526	0.290771
0	C	0.489824	0.507431	0.709472
0	C	0.621	0.508928	0.29062
0	H	0.955592	0.0634012	0.697508
0	H	0.154756	0.0637566	0.302542
0	H	0.45082	0.560389	0.698418
0	H	0.65958	0.56208	0.301821
0	C	0.0834395	0.934077	0.773769
0	C	0.0263151	0.934793	0.226324
0	C	0.583119	0.431323	0.772758
0	C	0.528387	0.432853	0.227084
0	H	0.117885	0.928304	0.81063
0	H	0.991584	0.929163	0.189488
0	H	0.616937	0.42419	0.80956
0	H	0.494666	0.425909	0.190257
0	C	0.0371241	0.00231877	0.756687
0	C	0.0727307	0.00299492	0.24341
0	C	0.533749	0.498422	0.756815
0	C	0.577077	0.500254	0.243253
0	H	0.0347599	0.0501117	0.780268
0	H	0.0747551	0.0509451	0.219864
0	H	0.528574	0.543722	0.781269
0	H	0.581716	0.546045	0.21896
0	C	0.0415984	0.880486	0.695792
0	C	0.0688086	0.880858	0.304227
0	C	0.545854	0.382828	0.693793
0	C	0.566139	0.38353	0.305895
0	H	0.0440942	0.831534	0.672708
0	H	0.0665218	0.831785	0.327282
0	H	0.552107	0.336749	0.669698
0	H	0.560286	0.337007	0.329825
0	C	0.988889	0.925252	0.572411
0	C	0.121863	0.925438	0.427712
0	C	0.486969	0.428447	0.571234
0	C	0.623462	0.428897	0.428613
0	C	0.0425661	0.849332	0.584534
0	C	0.0684142	0.849376	0.415663
0	C	0.538283	0.351021	0.581229
0	C	0.572351	0.351366	0.418419
0	H	0.00184563	0.798295	0.584722
0	H	0.109408	0.798292	0.416038
0	H	0.495378	0.300086	0.575874
0	H	0.615384	0.300479	0.423989
0	H	0.0921765	0.852893	0.61833
0	H	0.0194243	0.852413	0.381636
0	H	0.582612	0.348475	0.616683
0	H	0.528542	0.348729	0.382842
0	H	0.0752568	0.83741	0.558448
0	H	0.0349782	0.837878	0.441469
0	H	0.576747	0.343964	0.557423
0	H	0.533346	0.344249	0.441946
0	C	0.0495223	0.995263	0.573019
0	C	0.0610836	0.995397	0.426933
0	C	0.549776	0.497513	0.573911
0	C	0.560489	0.497831	0.425865
0	H	0.0956927	0.00494349	0.607494
0	H	0.015418	0.00523712	0.39233
0	H	0.596552	0.503485	0.608545
0	H	0.514159	0.504018	0.391112
0	H	0.0143432	0.0504814	0.562091
0	H	0.0962149	0.0505685	0.438106
0	H	0.516562	0.554132	0.564903
0	H	0.593622	0.554441	0.435153
0	H	0.0865012	0.984529	0.5488
0	H	0.0235495	0.984509	0.450864
0	H	0.586156	0.488391	0.549267
0	H	0.52363	0.488394	0.450249
0	C	0.372897	0.587911	0.914531
0	C	0.736257	0.597518	0.0867997
0	C	0.875063	0.0807786	0.913318
0	C	0.233358	0.0905957	0.0856562
0	H	0.349119	0.558626	0.941366
0	H	0.762997	0.57035	0.0605184
0	H	0.853368	0.0508068	0.940727
0	H	0.256917	0.0614272	0.0587327
0	C	0.224328	0.602876	0.855488
0	C	0.881967	0.624437	0.147038
0	C	0.724431	0.0913218	0.855477
0	C	0.38195	0.108734	0.14451
0	H	0.241435	0.559133	0.831811
0	H	0.868125	0.576512	0.169404
0	H	0.74132	0.0513852	0.829908
0	H	0.36551	0.0656511	0.168773
0	C	0.459161	0.629212	0.937579
0	C	0.647183	0.63333	0.0628712
0	C	0.960259	0.124413	0.935462
0	C	0.14615	0.13062	0.0629622
0	H	0.508947	0.587385	0.957935
0	H	0.599972	0.588502	0.0436901
0	H	0.0120804	0.0838892	0.955093
0	H	0.0962334	0.0880084	0.0438247
0	C	0.446216	0.699264	0.966284
0	C	0.655491	0.702889	0.0326717
0	C	0.946524	0.193518	0.964631
0	C	0.156476	0.200079	0.0331204
0	H	0.431793	0.676477	0.997737
0	H	0.672188	0.679998	0.00190794
0	H	0.933914	0.17002	0.99643
0	H	0.170375	0.176907	0.00160646
0	H	0.507523	0.732412	0.979809
0	H	0.591974	0.732146	0.0182679
0	H	0.00685821	0.228123	0.977749
0	H	0.0943778	0.231949	0.0196937
0	C	0.291364	0.710836	0.915885
0	C	0.808348	0.725106	0.0840074
0	C	0.790145	0.200832	0.915393
0	C	0.312083	0.214291	0.0825631
0	H	0.242764	0.752809	0.895385
0	H	0.853132	0.770388	0.104044
0	H	0.739871	0.241807	0.895358
0	H	0.360252	0.257253	0.102314
0	H	0.263973	0.685402	0.94196
0	H	0.839118	0.700674	0.0590704
0	H	0.764887	0.174383	0.942047
0	H	0.339083	0.188515	0.0564106
0	C	0.375059	0.755019	0.939259
0	C	0.721954	0.763309	0.0589161
0	C	0.87287	0.247163	0.937843
0	C	0.227247	0.25702	0.0593077
0	H	0.396005	0.786608	0.912437
0	H	0.697628	0.794611	0.0845901
0	H	0.891761	0.279226	0.910493
0	H	0.206509	0.28872	0.0861538
0	H	0.364453	0.801197	0.96289
0	H	0.73019	0.809433	0.034296
0	H	0.8614	0.292883	0.961323
0	H	0.236361	0.303224	0.0351925
0	O	0.486476	0.658624	0.898264
0	O	0.61895	0.662863	0.101823
0	O	0.9844	0.155583	0.895517
0	O	0.121077	0.161142	0.102736
0	O	0.625009	0.626816	0.93439
0	O	0.480268	0.631124	0.0658847
0	O	0.125621	0.137459	0.932739
0	O	0.980403	0.137474	0.0666813
0	O	0.557247	0.714326	0.688924
0	O	0.553154	0.718071	0.311837
0	O	0.0519324	0.225205	0.686744
0	O	0.0567059	0.230219	0.312307
0	O	0.692679	0.730193	0.722942
0	O	0.418465	0.739262	0.278292
0	O	0.186606	0.245879	0.720811
0	O	0.922762	0.254287	0.278115
0	C	0.511624	0.690182	0.816027
0	C	0.59591	0.693726	0.184021
0	C	0.00837232	0.199251	0.814535
0	C	0.09892	0.201172	0.184306
0	H	0.447177	0.693762	0.819838
0	H	0.660206	0.695688	0.179884
0	H	0.944185	0.201978	0.81876
0	H	0.16299	0.202691	0.179882
0	C	0.570121	0.649024	0.89979
0	C	0.535347	0.653756	0.100265
0	C	0.0689025	0.155154	0.897751
0	C	0.0370211	0.157547	0.101133
0	C	0.581675	0.668941	0.853968
0	C	0.524738	0.674384	0.146204
0	C	0.0791047	0.177473	0.851959
0	C	0.027514	0.18016	0.147036
0	C	0.664547	0.663555	0.849591
0	C	0.442065	0.671194	0.150928
0	C	0.161763	0.173489	0.84712
0	C	0.945065	0.177316	0.152158
0	H	0.718394	0.646502	0.879723
0	H	0.387298	0.655748	0.120879
0	H	0.216124	0.156379	0.87697
0	H	0.890192	0.160375	0.122526
0	C	0.523869	0.705498	0.773058
0	C	0.584944	0.709282	0.227235
0	C	0.0196559	0.216054	0.771489
0	C	0.0884064	0.218941	0.227391
0	H	0.469008	0.720531	0.742829
0	H	0.640621	0.722922	0.257328
0	H	0.964337	0.231417	0.741586
0	H	0.144184	0.233919	0.257135
0	C	0.67757	0.679177	0.806989
0	C	0.430349	0.686834	0.193843
0	C	0.173768	0.190486	0.804441
0	C	0.93383	0.195249	0.194907
0	H	0.741823	0.67497	0.802984
0	H	0.366241	0.683855	0.19818
0	H	0.237689	0.186999	0.799924
0	H	0.870003	0.192638	0.199616
0	C	0.606706	0.69976	0.769039
0	C	0.502247	0.705602	0.231626
0	C	0.102168	0.211286	0.766953
0	C	0.00596315	0.215805	0.232132
0	O	0.385055	0.526524	0.882709
0	O	0.728638	0.534595	0.118828
0	O	0.888554	0.0199158	0.881569
0	O	0.223212	0.0292279	0.118014
0	O	0.43811	0.445148	0.943753
0	O	0.667864	0.456223	0.057326
0	O	0.935725	0.93716	0.942475
0	O	0.169051	0.947946	0.0571029
0	O	0.356279	0.15097	0.773326
0	O	0.754428	0.155874	0.224701
0	O	0.869724	0.641517	0.77454
0	O	0.246386	0.6498	0.224484
0	O	0.415955	0.22366	0.733334
0	O	0.695113	0.227379	0.265395
0	O	0.920192	0.717889	0.732088
0	O	0.192611	0.723844	0.266587
0	C	0.414475	0.455014	0.902124
0	C	0.695726	0.4642	0.0990293
0	C	0.915208	0.947742	0.900913
0	C	0.193761	0.957585	0.098776
0	C	0.400944	0.414581	0.819644
0	C	0.710779	0.420985	0.181191
0	C	0.90256	0.907453	0.81844
0	C	0.209339	0.915914	0.181439
0	H	0.396644	0.476809	0.809094
0	H	0.714909	0.482883	0.192372
0	H	0.896806	0.969576	0.807739
0	H	0.214535	0.97787	0.192437
0	C	0.398307	0.276377	0.800906
0	C	0.713318	0.282186	0.198459
0	C	0.903936	0.769214	0.80028
0	C	0.209915	0.777325	0.199118
0	C	0.410131	0.394435	0.865741
0	C	0.701644	0.402369	0.134893
0	C	0.91253	0.887399	0.864658
0	C	0.199071	0.896671	0.135072
0	C	0.396163	0.355057	0.786948
0	C	0.715552	0.360413	0.213248
0	C	0.899291	0.847879	0.785978
0	C	0.213615	0.855784	0.213704
0	H	0.390412	0.370311	0.75066
0	H	0.721264	0.374476	0.249692
0	H	0.892835	0.862998	0.749597
0	H	0.220086	0.870266	0.250182
0	C	0.414568	0.31516	0.879672
0	C	0.697594	0.323559	0.120163
0	C	0.919309	0.808241	0.878891
0	C	0.193785	0.817681	0.120616
0	H	0.423207	0.300737	0.916141
0	H	0.689099	0.310262	0.0835678
0	H	0.928467	0.793901	0.915442
0	H	0.184612	0.803772	0.0839943
0	C	0.407862	0.255557	0.847168
0	C	0.704142	0.262913	0.152023
0	C	0.914289	0.748562	0.846634
0	C	0.199997	0.757491	0.152711
0	H	0.410392	0.193421	0.857519
0	H	0.701568	0.201103	0.14101
0	H	0.918718	0.686442	0.857252
0	H	0.196558	0.695487	0.141917
0	C	0.306712	0.645296	0.884168
0	C	0.796615	0.65964	0.116746
0	C	0.805967	0.136092	0.883323
0	C	0.298773	0.149374	0.115257
0	H	0.335468	0.67235	0.858372
0	H	0.764192	0.685239	0.141339
0	H	0.832439	0.164246	0.856874
0	H	0.269755	0.176856	0.140881
0	C	0.0265871	0.538322	0.900401
0	C	0.0910765	0.56904	0.102655
0	C	0.533469	0.0224059	0.899843
0	C	0.580996	0.0442692	0.100844
0	C	0.0426463	0.603125	0.930676
0	C	0.0761838	0.62938	0.069408
0	C	0.551022	0.0900306	0.927938
0	C	0.564263	0.109677	0.0709883
0	H	0.106916	0.628644	0.94312
0	H	0.0133375	0.657628	0.0571164
0	H	0.615855	0.114576	0.93949
0	H	0.500006	0.1354	0.0592821
0	C	0.94329	0.506891	0.885288
0	C	0.172989	0.534563	0.118042
0	C	0.449587	0.992305	0.886055
0	C	0.664329	0.0127945	0.115119
0	H	0.928053	0.456321	0.861732
0	H	0.187553	0.48764	0.144142
0	H	0.433132	0.939641	0.864285
0	H	0.680215	0.961868	0.138384
0	C	0.877592	0.539344	0.900172
0	C	0.237893	0.558759	0.0998413
0	C	0.384752	0.0289588	0.899878
0	C	0.729214	0.0455979	0.099677
0	H	0.81361	0.513804	0.888289
0	H	0.300453	0.530399	0.111585
0	H	0.320136	0.00467056	0.888807
0	H	0.793243	0.0200374	0.110873
0	C	0.160382	0.40809	0.92888
0	C	0.957023	0.442742	0.0725558
0	C	0.667447	0.891923	0.929403
0	C	0.448263	0.913484	0.0719406
0	C	0.232404	0.359843	0.918802
0	C	0.882746	0.394874	0.0804755
0	C	0.737185	0.840896	0.919078
0	C	0.376792	0.86381	0.0815546
0	H	0.289777	0.395766	0.92278
0	H	0.826997	0.432144	0.0780678
0	H	0.795516	0.874993	0.922215
0	H	0.319579	0.899159	0.0789349
0	H	0.212513	0.334052	0.883898
0	H	0.901363	0.364884	0.11419
0	H	0.715442	0.814313	0.884446
0	H	0.397685	0.835637	0.115774
0	H	0.251971	0.310902	0.943498
0	H	0.8611	0.349195	0.0537703
0	H	0.755915	0.792437	0.944154
0	H	0.356541	0.816475	0.0558024
0	C	0.194143	0.441603	0.978508
0	C	0.926099	0.479337	0.0236292
0	C	0.703943	0.928982	0.977933
0	C	0.414427	0.947643	0.0224932
0	H	0.250799	0.478992	0.983202
0	H	0.870239	0.517685	0.0190202
0	H	0.761273	0.964664	0.980973
0	H	0.357303	0.984335	0.0178999
0	H	0.213273	0.393595	0.00410029
0	H	0.906892	0.433378	0.996966
0	H	0.723039	0.882652	0.00477222
0	H	0.396121	0.900163	0.996646
0	H	0.145811	0.476681	0.98813
0	H	0.976111	0.514024	0.0152794
0	H	0.657337	0.96662	0.987386
0	H	0.462373	0.983611	0.0130865
0	C	0.0834632	0.352956	0.925692
0	C	0.0328369	0.3863	0.0756669
0	C	0.589855	0.839094	0.928324
0	C	0.525745	0.859114	0.075099
0	H	0.0349018	0.381117	0.938727
0	H	0.0821811	0.413679	0.0629212
0	H	0.543959	0.86895	0.942629
0	H	0.573948	0.887772	0.0620109
0	H	0.105466	0.300385	0.947128
0	H	0.0101895	0.334183	0.0539666
0	H	0.611634	0.786316	0.949535
0	H	0.504561	0.806337	0.0537719
0	H	0.051472	0.332654	0.890164
0	H	0.0641069	0.365351	0.111132
0	H	0.554627	0.818909	0.893183
0	H	0.557907	0.838911	0.110634
0	C	0.0857457	0.457985	0.822502
0	C	0.0295935	0.484779	0.17936
0	C	0.591555	0.939695	0.822367
0	C	0.521709	0.960588	0.178137
0	N	0.389567	0.2124	0.766416
0	N	0.721473	0.217132	0.232219
0	N	0.89738	0.704943	0.766225
0	N	0.216853	0.712372	0.232799
0	C	0.00967224	0.482285	0.789245
0	C	0.106205	0.504238	0.213724
0	C	0.5131	0.960048	0.789806
0	C	0.599899	0.979464	0.211385
0	H	0.959578	0.513158	0.799521
0	H	0.156324	0.538208	0.205235
0	H	0.462016	0.987386	0.800804
0	H	0.650398	0.0100482	0.201444
0	N	0.295997	0.606737	0.733924
0	N	0.814195	0.609248	0.266499
0	N	0.796158	0.115655	0.732028
0	N	0.315596	0.118836	0.267335
0	C	0.155266	0.660075	0.828126
0	C	0.942448	0.68633	0.17624
0	C	0.65068	0.146584	0.831093
0	C	0.449913	0.167504	0.171149
0	H	0.107453	0.629686	0.799635
0	H	0.992221	0.658824	0.205071
0	H	0.601583	0.115518	0.803607
0	H	0.497689	0.138676	0.200362
0	H	0.183037	0.708228	0.813139
0	H	0.907589	0.729372	0.190882
0	H	0.673233	0.197184	0.815496
0	H	0.421254	0.216398	0.185091
0	H	0.120503	0.686419	0.850313
0	H	0.975658	0.718976	0.155448
0	H	0.618453	0.169504	0.855445
0	H	0.484928	0.19287	0.148795
0	C	0.135432	0.406441	0.7598
0	C	0.980846	0.419418	0.238818
0	C	0.641313	0.892284	0.758863
0	C	0.473181	0.903231	0.239833
0	H	0.185447	0.37811	0.748549
0	H	0.931085	0.387428	0.248406
0	H	0.691968	0.866853	0.74696
0	H	0.423092	0.874458	0.250766
0	C	0.148127	0.419357	0.807071
0	C	0.967186	0.442044	0.192681
0	C	0.655227	0.905042	0.806243
0	C	0.458618	0.922152	0.193084
0	H	0.208252	0.399361	0.831973
0	H	0.906218	0.42611	0.167002
0	H	0.71717	0.888236	0.830604
0	H	0.396522	0.906925	0.168285
0	N	0.792781	0.372527	0.775039
0	N	0.319962	0.375067	0.223096
0	N	0.289333	0.86787	0.773795
0	N	0.819979	0.87183	0.225012
0	C	0.0593595	0.430928	0.727008
0	C	0.0576867	0.438869	0.272667
0	C	0.562972	0.913087	0.726741
0	C	0.551467	0.922205	0.272591
0	H	0.0492987	0.420901	0.690171
0	H	0.0686383	0.421351	0.308642
0	H	0.551983	0.903279	0.689813
0	H	0.563038	0.907632	0.309032
0	C	0.799831	0.190483	0.561241
0	C	0.310698	0.190779	0.438401
0	C	0.294996	0.691063	0.56156
0	C	0.815516	0.691956	0.438306
0	H	0.772357	0.2468	0.547017
0	H	0.338126	0.247151	0.452564
0	H	0.266424	0.747005	0.547383
0	H	0.844064	0.747969	0.452371
0	N	0.61961	0.715785	0.723525
0	N	0.490669	0.722006	0.27739
0	N	0.114175	0.22858	0.721353
0	N	0.994608	0.234651	0.277683
0	C	0.996604	0.468597	0.741892
0	C	0.120014	0.481363	0.259951
0	C	0.498965	0.946725	0.742343
0	C	0.614569	0.960323	0.258233
0	H	0.937556	0.488156	0.71646
0	H	0.1795	0.497279	0.286265
0	H	0.438204	0.96348	0.717379
0	H	0.675199	0.975815	0.283737
0	C	0.755467	0.120694	0.545301
0	C	0.355083	0.121038	0.454436
0	C	0.252053	0.620676	0.545507
0	C	0.858534	0.621637	0.45445
0	H	0.693611	0.12284	0.518124
0	H	0.416934	0.12325	0.481627
0	H	0.19017	0.621953	0.518323
0	H	0.92047	0.62302	0.481597
0	C	0.894451	0.603385	0.930604
0	C	0.221797	0.617655	0.0660036
0	C	0.403068	0.0958804	0.928028
0	C	0.711577	0.110051	0.0695482
0	H	0.843852	0.627566	0.943026
0	H	0.271625	0.634913	0.0508981
0	H	0.353066	0.123383	0.939553
0	H	0.76155	0.134342	0.0566891
0	C	0.977031	0.635332	0.945736
0	C	0.141098	0.653368	0.0511006
0	C	0.486323	0.126437	0.941961
0	C	0.629067	0.142254	0.0553953
0	H	0.990658	0.684649	0.969803
0	H	0.12826	0.699089	0.0247042
0	H	0.501215	0.177993	0.964297
0	H	0.614843	0.192101	0.0317196
0	C	0.924499	0.91637	0.523416
0	C	0.18619	0.91679	0.47675
0	C	0.422631	0.423884	0.522021
0	C	0.68755	0.424279	0.477906
0	H	0.87785	0.869167	0.521572
0	H	0.232846	0.869542	0.478673
0	H	0.374331	0.377709	0.518876
0	H	0.735772	0.377993	0.481115
0	H	0.957627	0.902315	0.497866
0	H	0.152946	0.902822	0.502259
0	H	0.455353	0.410752	0.496163
0	H	0.654517	0.411226	0.503632
0	H	0.887435	0.970325	0.510918
0	H	0.223304	0.970733	0.489175
0	H	0.387372	0.4791	0.510858
0	H	0.722974	0.47941	0.489092
