#******************************************
#
# CIF file created by Zeo++
# Zeo++ is an open source package to
# analyze microporous materials
#
#*******************************************

_cell_length_a		17.6628(0)
_cell_length_b		18.9566(0)
_cell_length_c		22.6411(0)
_cell_angle_alpha		83.5166(0)
_cell_angle_beta		65.4964(0)
_cell_angle_gamma		64.926(0)

_symmetry_space_group_name_H-M		'P1'
_symmetry_Int_Tables_number		1
_symmetry_cell_setting		Triclinic

loop_
_symmetry_equiv_pos_as_xyz
'+x,+y,+z'

loop_
_atom_site_label
_atom_site_type_symbol
_atom_site_fract_x
_atom_site_fract_y
_atom_site_fract_z
0	N	0.309528	0.383401	0.685414
0	N	0.667832	0.617513	0.32931
0	N	0.3289	0.421515	0.634014
0	N	0.648522	0.579286	0.380644
0	N	0.413767	0.375535	0.587608
0	N	0.563333	0.624957	0.426909
0	N	0.367739	0.782937	0.885898
0	N	0.609363	0.217687	0.128786
0	N	0.336013	0.733697	0.918655
0	N	0.641106	0.266903	0.0959949
0	N	0.271915	0.732173	0.89955
0	N	0.70529	0.268379	0.115031
0	N	0.169058	0.407959	0.509527
0	N	0.808191	0.592646	0.504945
0	N	0.104737	0.47872	0.524202
0	N	0.872408	0.521831	0.490399
0	N	0.0902719	0.506573	0.583156
0	N	0.887037	0.493922	0.431418
0	N	0.333887	0.80614	0.665576
0	N	0.643256	0.19468	0.349303
0	N	0.374752	0.743658	0.689852
0	N	0.602415	0.257036	0.324895
0	N	0.468109	0.718933	0.657146
0	N	0.509063	0.28142	0.357235
0	N	0.863954	0.491806	0.745763
0	N	0.113288	0.508945	0.268995
0	N	0.80194	0.562732	0.763852
0	N	0.175193	0.437997	0.250797
0	N	0.78044	0.59613	0.712244
0	N	0.196599	0.404333	0.302379
0	N	0.243518	0.865769	0.511894
0	N	0.733385	0.135117	0.50263
0	N	0.300139	0.809538	0.466609
0	N	0.676834	0.191312	0.547965
0	N	0.279548	0.827273	0.412734
0	N	0.697414	0.1734	0.60184
0	N	0.623625	0.440885	0.867533
0	N	0.35325	0.560179	0.147325
0	N	0.545344	0.436003	0.892726
0	N	0.431514	0.56509	0.122058
0	N	0.537311	0.398453	0.94931
0	N	0.439739	0.602134	0.065231
0	N	0.906275	0.963489	0.65845
0	N	0.0713552	0.037609	0.35559
0	N	0.94969	0.905573	0.614483
0	N	0.0279317	0.0955127	0.399571
0	N	0.0290588	0.854333	0.620499
0	N	0.94802	0.146277	0.394052
0	N	0.208497	0.347138	0.900769
0	N	0.767806	0.654071	0.114409
0	N	0.239252	0.400876	0.880439
0	N	0.737057	0.600322	0.134634
0	N	0.19698	0.448582	0.842746
0	N	0.78007	0.55198	0.171689
0	N	0.0435874	0.864228	0.836158
0	N	0.933687	0.136101	0.178564
0	N	0.989122	0.837467	0.832277
0	N	0.988147	0.162903	0.182407
0	N	0.912899	0.856281	0.890293
0	N	0.0642091	0.144307	0.124303
0	O	0.407682	0.179248	0.691318
0	O	0.569259	0.821447	0.323365
0	O	0.316732	0.945419	0.829898
0	O	0.66057	0.0551305	0.184793
0	O	0.290415	0.251499	0.516182
0	O	0.686746	0.749032	0.498287
0	O	0.401625	0.94852	0.591965
0	O	0.575193	0.0521808	0.422898
0	O	0.916836	0.347788	0.647502
0	O	0.0603481	0.652728	0.367407
0	O	0.144584	0.0505493	0.52396
0	O	0.832289	0.950129	0.490574
0	O	0.825234	0.323923	0.896202
0	O	0.151813	0.676584	0.118545
0	O	0.896996	0.0852604	0.732975
0	O	0.0799735	0.915334	0.281719
0	O	0.124758	0.241703	0.920081
0	O	0.852303	0.758885	0.0946324
0	O	0.990728	0.0224731	0.928333
0	O	0.986449	0.978024	0.0863552
0	C	0.38243	0.123075	0.728612
0	C	0.594594	0.877578	0.286059
0	C	0.329899	0.133281	0.795797
0	C	0.647146	0.86736	0.218881
0	H	0.303449	0.188546	0.823289
0	H	0.673541	0.812096	0.191413
0	C	0.308309	0.0728841	0.828771
0	C	0.668832	0.927714	0.185897
0	C	0.340046	0.00238907	0.792694
0	C	0.637153	0.998194	0.221978
0	C	0.390609	0.99313	0.725176
0	C	0.586535	0.00749094	0.289491
0	H	0.410287	0.941016	0.696137
0	H	0.566867	0.0596047	0.318535
0	C	0.413821	0.0528668	0.692324
0	C	0.563254	0.947785	0.322337
0	C	0.468663	0.0424183	0.619915
0	C	0.508359	0.958264	0.39474
0	H	0.516027	0.97992	0.603741
0	H	0.461011	0.0207671	0.410911
0	H	0.513286	0.0742127	0.60616
0	H	0.463712	0.926493	0.408478
0	C	0.40531	0.071495	0.585698
0	C	0.571681	0.929154	0.428986
0	C	0.370957	0.0230017	0.571548
0	C	0.605951	0.977664	0.443232
0	C	0.311316	0.0506233	0.540254
0	C	0.665571	0.950023	0.474542
0	H	0.282901	0.0140871	0.530582
0	H	0.693898	0.986579	0.484304
0	C	0.283058	0.128031	0.522906
0	C	0.693939	0.872567	0.491779
0	C	0.316831	0.175849	0.53744
0	C	0.660257	0.824746	0.477147
0	C	0.377183	0.148326	0.568386
0	C	0.599897	0.852286	0.446202
0	H	0.401363	0.186514	0.580663
0	H	0.57579	0.814085	0.433855
0	C	0.217617	0.158735	0.490294
0	C	0.759381	0.841829	0.524394
0	H	0.222978	0.211046	0.464209
0	H	0.754032	0.78949	0.550433
0	H	0.236161	0.114285	0.45257
0	H	0.740831	0.886247	0.562147
0	C	0.121241	0.17954	0.53966
0	C	0.855754	0.82105	0.475032
0	C	0.084657	0.123102	0.557399
0	C	0.892273	0.877535	0.457222
0	C	0.996321	0.140941	0.605291
0	C	0.980602	0.859702	0.409324
0	H	0.969745	0.0963045	0.621897
0	H	0.00712236	0.904365	0.392622
0	C	0.941483	0.21633	0.636056
0	C	0.0355314	0.784263	0.378679
0	C	0.977136	0.273302	0.617162
0	C	0.999955	0.727249	0.397656
0	C	0.0661576	0.255015	0.569875
0	C	0.910905	0.745539	0.444902
0	H	0.0947531	0.298373	0.556085
0	H	0.882355	0.702155	0.458723
0	C	0.847905	0.234218	0.689134
0	C	0.12911	0.766368	0.3256
0	H	0.800931	0.296186	0.689457
0	H	0.176075	0.704398	0.325291
0	H	0.817038	0.198199	0.680377
0	H	0.159976	0.802392	0.334354
0	C	0.854097	0.218727	0.753946
0	C	0.122946	0.781829	0.26078
0	C	0.879642	0.142567	0.775957
0	C	0.0974019	0.857979	0.238751
0	C	0.885453	0.128497	0.836227
0	C	0.0916485	0.872012	0.178461
0	H	0.907218	0.0698408	0.852877
0	H	0.0699192	0.930649	0.161773
0	C	0.864939	0.190628	0.876622
0	C	0.112178	0.809868	0.138084
0	C	0.840769	0.266069	0.854283
0	C	0.136323	0.734438	0.160447
0	C	0.835654	0.280197	0.793692
0	C	0.141432	0.720335	0.221041
0	H	0.818354	0.339037	0.77674
0	H	0.158768	0.661492	0.237989
0	C	0.870501	0.176481	0.941681
0	C	0.106659	0.823981	0.0730114
0	H	0.846502	0.130576	0.964901
0	H	0.130715	0.869847	0.04976
0	H	0.823169	0.230439	0.975121
0	H	0.153976	0.769998	0.0396004
0	C	0.967225	0.153173	0.933114
0	C	0.0099309	0.847324	0.0815674
0	C	0.029479	0.0735751	0.925118
0	C	0.947703	0.926926	0.0895483
0	C	0.120038	0.051312	0.915812
0	C	0.857144	0.949212	0.0988324
0	H	0.168697	0.989838	0.907706
0	H	0.808501	0.0106886	0.106931
0	C	0.152158	0.108308	0.912977
0	C	0.824995	0.892244	0.101685
0	C	0.0904704	0.187292	0.92051
0	C	0.886655	0.813251	0.0941832
0	C	0.999237	0.209683	0.930437
0	C	0.977888	0.790831	0.0842597
0	H	0.952114	0.271225	0.935032
0	H	0.024987	0.729282	0.0796911
0	C	0.250528	0.0842497	0.900791
0	C	0.726618	0.916313	0.113878
0	H	0.257167	0.129182	0.923582
0	H	0.719972	0.871368	0.0911143
0	H	0.2761	0.0290364	0.923754
0	H	0.701063	0.9715	0.090889
0	C	0.382798	0.251762	0.72564
0	C	0.593985	0.748985	0.289047
0	H	0.436656	0.240555	0.743159
0	H	0.539935	0.760269	0.271709
0	H	0.314887	0.269606	0.7673
0	H	0.661767	0.731182	0.247257
0	C	0.382786	0.309261	0.675452
0	C	0.594221	0.691396	0.339158
0	C	0.44964	0.303771	0.612739
0	C	0.5272	0.696609	0.401734
0	H	0.515288	0.25639	0.586727
0	H	0.461271	0.743747	0.427637
0	C	0.454819	0.400607	0.524237
0	C	0.522245	0.599765	0.490209
0	C	0.543896	0.352454	0.481102
0	C	0.433288	0.648039	0.533451
0	H	0.5835	0.295409	0.493803
0	H	0.393813	0.705208	0.520847
0	C	0.582797	0.378727	0.420617
0	C	0.394351	0.621715	0.593896
0	H	0.651965	0.341487	0.38652
0	H	0.325267	0.65903	0.628056
0	C	0.533921	0.451583	0.403273
0	C	0.443069	0.548696	0.611113
0	H	0.565652	0.471908	0.356271
0	H	0.411311	0.528336	0.658088
0	C	0.444888	0.498613	0.446384
0	C	0.531949	0.501525	0.567886
0	H	0.406797	0.555596	0.432957
0	H	0.569895	0.444389	0.58119
0	C	0.404639	0.473562	0.50706
0	C	0.572223	0.526605	0.507227
0	H	0.33563	0.511075	0.541389
0	H	0.641099	0.488963	0.472794
0	C	0.350476	0.871138	0.794016
0	C	0.626666	0.129476	0.220647
0	H	0.425933	0.848646	0.767272
0	H	0.55119	0.151937	0.247295
0	H	0.316674	0.882881	0.759893
0	H	0.660325	0.11785	0.25485
0	C	0.325427	0.81682	0.842626
0	C	0.651779	0.183739	0.171993
0	C	0.263602	0.78449	0.851323
0	C	0.713681	0.216016	0.163217
0	H	0.219934	0.793411	0.826395
0	H	0.757442	0.207028	0.188085
0	C	0.224848	0.681843	0.92534
0	C	0.752356	0.318707	0.0891799
0	C	0.132123	0.71064	0.93672
0	C	0.845	0.290042	0.0779776
0	H	0.0951892	0.770559	0.927841
0	H	0.881902	0.230211	0.0870623
0	C	0.0872598	0.661332	0.960106
0	C	0.889837	0.339368	0.0544838
0	H	0.0152382	0.683169	0.968847
0	H	0.961813	0.317621	0.0458462
0	C	0.134167	0.584669	0.972406
0	C	0.842971	0.415912	0.0419346
0	H	0.0993543	0.546022	0.990099
0	H	0.877772	0.454561	0.0241465
0	C	0.226334	0.557004	0.96135
0	C	0.750873	0.443443	0.0528324
0	H	0.262966	0.496777	0.970304
0	H	0.714262	0.503576	0.0436712
0	C	0.272696	0.605166	0.93776
0	C	0.704554	0.39526	0.0764928
0	H	0.34483	0.583183	0.9287
0	H	0.632483	0.417124	0.0853989
0	C	0.276515	0.31086	0.559871
0	C	0.701212	0.689762	0.454238
0	H	0.342016	0.317272	0.540115
0	H	0.635738	0.683376	0.473468
0	H	0.261471	0.291633	0.610106
0	H	0.716834	0.709088	0.404007
0	C	0.200491	0.385535	0.559286
0	C	0.776982	0.615023	0.455074
0	C	0.150013	0.448596	0.60689
0	C	0.82749	0.551891	0.407539
0	H	0.154664	0.454949	0.651853
0	H	0.82297	0.545496	0.362534
0	C	0.0237789	0.583824	0.61314
0	C	0.953472	0.416621	0.401531
0	C	0.984037	0.639833	0.576216
0	C	0.992917	0.360576	0.438575
0	H	0.00197218	0.625693	0.525306
0	H	0.974787	0.37473	0.489524
0	C	0.921221	0.714686	0.605416
0	C	0.0556799	0.285689	0.409448
0	H	0.89081	0.759009	0.576795
0	H	0.0858355	0.241315	0.438156
0	C	0.897932	0.733421	0.670439
0	C	0.0792545	0.26696	0.344367
0	H	0.8491	0.792206	0.692492
0	H	0.128051	0.208138	0.322378
0	C	0.937234	0.676929	0.706916
0	C	0.0402547	0.323469	0.307768
0	H	0.918369	0.691549	0.757798
0	H	0.0593322	0.30885	0.256848
0	C	0.000325426	0.601721	0.67873
0	C	0.977183	0.398712	0.335895
0	H	0.0298904	0.55808	0.707745
0	H	0.947839	0.442355	0.306785
0	C	0.373098	0.893511	0.576142
0	C	0.603971	0.107117	0.438524
0	H	0.410292	0.878007	0.523018
0	H	0.566879	0.122736	0.491635
0	H	0.297876	0.921382	0.590234
0	H	0.679204	0.0791374	0.424365
0	C	0.399852	0.825631	0.614329
0	C	0.577268	0.174922	0.400258
0	C	0.486344	0.769638	0.608648
0	C	0.490794	0.230606	0.405617
0	H	0.554403	0.764352	0.576162
0	H	0.422739	0.235633	0.437819
0	C	0.531531	0.648294	0.671576
0	C	0.445674	0.351902	0.342605
0	C	0.6111	0.598884	0.620566
0	C	0.366028	0.401456	0.393491
0	H	0.627224	0.61407	0.570261
0	H	0.349803	0.386445	0.443839
0	C	0.669778	0.529356	0.635301
0	C	0.307435	0.470866	0.378563
0	H	0.732171	0.490493	0.596082
0	H	0.244948	0.509809	0.417666
0	C	0.649496	0.509556	0.69975
0	C	0.327911	0.490429	0.314044
0	H	0.695828	0.455279	0.711093
0	H	0.281673	0.544635	0.302541
0	C	0.570334	0.559742	0.750171
0	C	0.407121	0.440099	0.26375
0	H	0.555322	0.544324	0.80056
0	H	0.422266	0.45533	0.213311
0	C	0.51078	0.629541	0.736611
0	C	0.466569	0.370384	0.277506
0	H	0.449475	0.669097	0.775943
0	H	0.527903	0.330713	0.238277
0	C	0.960432	0.400281	0.642659
0	C	0.0168327	0.600166	0.372289
0	H	0.992739	0.409215	0.59037
0	H	0.984739	0.591113	0.424576
0	H	0.0124096	0.372038	0.663299
0	H	0.964693	0.628389	0.351787
0	C	0.887284	0.474649	0.679876
0	C	0.0899356	0.525862	0.334936
0	C	0.833862	0.541423	0.658186
0	C	0.143214	0.458893	0.356541
0	H	0.831518	0.552168	0.6109
0	H	0.14549	0.447917	0.403835
0	C	0.714899	0.675506	0.715836
0	C	0.262113	0.324914	0.29866
0	C	0.699294	0.705123	0.660228
0	C	0.277701	0.295091	0.354238
0	H	0.734465	0.669008	0.614321
0	H	0.242497	0.331081	0.400216
0	C	0.637333	0.782561	0.663894
0	C	0.339679	0.21763	0.350441
0	H	0.625008	0.805962	0.620668
0	H	0.351972	0.194049	0.393641
0	C	0.591842	0.830003	0.721782
0	C	0.38527	0.170391	0.292438
0	H	0.545223	0.891031	0.72373
0	H	0.431936	0.109351	0.290378
0	C	0.606176	0.799348	0.777296
0	C	0.370968	0.201245	0.236959
0	H	0.568106	0.835677	0.823088
0	H	0.409112	0.165073	0.191084
0	C	0.667945	0.72218	0.774762
0	C	0.309114	0.278423	0.23964
0	H	0.679158	0.698533	0.81814
0	H	0.297903	0.302206	0.196292
0	C	0.104812	0.99471	0.530923
0	C	0.871997	0.00604042	0.483527
0	H	0.0491641	0.0206012	0.513608
0	H	0.927718	0.980197	0.500777
0	H	0.0783205	0.98319	0.583058
0	H	0.898387	0.0175472	0.431383
0	C	0.181183	0.924014	0.489736
0	C	0.795637	0.0767142	0.524758
0	C	0.204471	0.899906	0.425844
0	C	0.772384	0.10069	0.588681
0	H	0.174253	0.928315	0.391755
0	H	0.802599	0.0721358	0.622745
0	C	0.327345	0.774727	0.354955
0	C	0.649681	0.225823	0.659694
0	C	0.361698	0.693771	0.360934
0	C	0.615176	0.306807	0.653884
0	H	0.352508	0.670918	0.40871
0	H	0.62416	0.329801	0.60617
0	C	0.407025	0.643276	0.304906
0	C	0.569967	0.357152	0.710001
0	H	0.433202	0.580217	0.308754
0	H	0.543681	0.420234	0.706278
0	C	0.418052	0.673092	0.243954
0	C	0.559222	0.32714	0.77086
0	H	0.452922	0.633038	0.200469
0	H	0.524461	0.36707	0.814414
0	C	0.383485	0.753834	0.238691
0	C	0.593917	0.246365	0.775954
0	H	0.391536	0.77688	0.191104
0	H	0.586075	0.223163	0.823469
0	C	0.337928	0.805483	0.294078
0	C	0.639351	0.194877	0.720485
0	H	0.31097	0.86843	0.289762
0	H	0.666409	0.131905	0.72467
0	C	0.763084	0.402857	0.892475
0	C	0.213995	0.597641	0.12223
0	H	0.793077	0.423336	0.843941
0	H	0.184046	0.577132	0.170756
0	H	0.763019	0.435092	0.930511
0	H	0.214034	0.565438	0.0841896
0	C	0.670965	0.407048	0.907684
0	C	0.306102	0.593492	0.10699
0	C	0.615948	0.379465	0.960283
0	C	0.361235	0.620756	0.0541818
0	H	0.628474	0.347868	0.0005173
0	H	0.348863	0.65192	0.0137514
0	C	0.455642	0.38795	0.991092
0	C	0.521368	0.612672	0.0234141
0	C	0.424897	0.398508	0.058792
0	C	0.552031	0.602197	0.955719
0	H	0.463385	0.411258	0.0801123
0	H	0.513494	0.589499	0.934416
0	C	0.343108	0.392778	0.0989999
0	C	0.633786	0.60797	0.91548
0	H	0.31743	0.402808	0.151808
0	H	0.659391	0.597996	0.862675
0	C	0.293685	0.37554	0.0723314
0	C	0.683254	0.625182	0.942126
0	H	0.229292	0.372119	0.104384
0	H	0.747615	0.628636	0.91004
0	C	0.326494	0.36311	0.00487416
0	C	0.650528	0.637543	0.00958536
0	H	0.288417	0.349037	0.983815
0	H	0.68862	0.651606	0.0306362
0	C	0.407603	0.369534	0.963539
0	C	0.569454	0.631076	0.0509373
0	H	0.432363	0.361077	0.910833
0	H	0.544752	0.639496	0.103643
0	C	0.925687	0.00554039	0.753093
0	C	0.0512594	0.995027	0.261534
0	H	0.865545	0.00202943	0.794359
0	H	0.111341	0.998494	0.220169
0	H	0.982435	0.992446	0.768157
0	H	0.994422	0.00806731	0.246583
0	C	0.956249	0.953184	0.696089
0	C	0.0208504	0.0474624	0.318444
0	C	0.035535	0.883374	0.671696
0	C	0.941209	0.116959	0.343168
0	H	0.0917491	0.85581	0.686542
0	H	0.88457	0.144139	0.328737
0	C	0.0902979	0.781746	0.580635
0	C	0.886693	0.218806	0.433996
0	C	0.146906	0.719666	0.604281
0	C	0.829934	0.280859	0.410446
0	H	0.14661	0.725852	0.651655
0	H	0.830133	0.274687	0.363106
0	C	0.20369	0.649111	0.566029
0	C	0.773158	0.351384	0.448753
0	H	0.247893	0.599909	0.583856
0	H	0.728829	0.400581	0.431003
0	C	0.204272	0.640482	0.505284
0	C	0.772744	0.359996	0.509442
0	H	0.247748	0.584873	0.476038
0	H	0.729299	0.415599	0.538717
0	C	0.148095	0.702862	0.482168
0	C	0.829035	0.297602	0.532474
0	H	0.148075	0.695881	0.434888
0	H	0.829161	0.304555	0.579721
0	C	0.0907887	0.774035	0.519487
0	C	0.886331	0.226468	0.49511
0	H	0.0461784	0.822366	0.501501
0	H	0.931037	0.178119	0.513015
0	C	0.0866434	0.313068	0.890503
0	C	0.89055	0.687395	0.12403
0	H	0.0155572	0.347675	0.92594
0	H	0.961535	0.652805	0.0884509
0	H	0.0858373	0.297186	0.845036
0	H	0.891612	0.703098	0.169453
0	C	0.143332	0.357441	0.876629
0	C	0.833728	0.643135	0.137971
0	C	0.136173	0.422168	0.838755
0	C	0.841398	0.577977	0.17535
0	H	0.0962116	0.447337	0.810503
0	H	0.882029	0.552253	0.203085
0	C	0.210433	0.51718	0.815327
0	C	0.766552	0.483379	0.199
0	C	0.293454	0.52187	0.800646
0	C	0.683401	0.478885	0.213764
0	H	0.349025	0.473707	0.809076
0	H	0.627825	0.527159	0.205428
0	C	0.303165	0.589959	0.775838
0	C	0.673554	0.410833	0.238529
0	H	0.366988	0.595004	0.764756
0	H	0.609639	0.405942	0.249643
0	C	0.231775	0.651879	0.7654
0	C	0.744904	0.348762	0.248886
0	H	0.239911	0.705074	0.746299
0	H	0.736648	0.295616	0.267995
0	C	0.149583	0.646213	0.779832
0	C	0.827229	0.354224	0.234358
0	H	0.0936204	0.695005	0.772163
0	H	0.883158	0.305315	0.241967
0	C	0.138059	0.579044	0.805006
0	C	0.838925	0.421328	0.209175
0	H	0.0734181	0.575657	0.81691
0	H	0.903685	0.424534	0.197173
0	C	0.0509403	0.939054	0.918292
0	C	0.926229	0.0614427	0.0963593
0	H	0.0545028	0.92069	0.965756
0	H	0.922732	0.0797615	0.0488716
0	H	0.120075	0.928678	0.880195
0	H	0.857073	0.071823	0.134421
0	C	0.00500321	0.902428	0.898387
0	C	0.972125	0.0981001	0.116282
0	C	0.920922	0.897518	0.933341
0	C	0.0561012	0.103174	0.0812437
0	H	0.870357	0.919895	0.982192
0	H	0.106538	0.0809606	0.0323326
0	C	0.83856	0.835055	0.902112
0	C	0.138529	0.165574	0.112459
0	C	0.799118	0.807921	0.962411
0	C	0.177748	0.192947	0.0522307
0	H	0.825037	0.800145	0.000207458
0	H	0.1517	0.200848	0.0144947
0	C	0.725741	0.789665	0.973655
0	C	0.251074	0.211279	0.0409847
0	H	0.694368	0.768582	0.0205438
0	H	0.28226	0.232565	0.994152
0	C	0.693191	0.797613	0.925383
0	C	0.283825	0.203123	0.0891744
0	H	0.635467	0.783561	0.934832
0	H	0.341503	0.217243	0.0797214
0	C	0.734452	0.823257	0.865082
0	C	0.242838	0.177165	0.149383
0	H	0.709523	0.828676	0.827263
0	H	0.267953	0.171534	0.18713
0	C	0.807538	0.842331	0.852842
0	C	0.169782	0.158048	0.161634
0	H	0.839769	0.862579	0.80594
0	H	0.137761	0.137555	0.208465
