#******************************************
#
# CIF file created by Zeo++
# Zeo++ is an open source package to
# analyze microporous materials
#
#*******************************************

_cell_length_a		15.1961(0)
_cell_length_b		15.5695(0)
_cell_length_c		10.515(0)
_cell_angle_alpha		90(0)
_cell_angle_beta		90(0)
_cell_angle_gamma		122.25(0)

_symmetry_space_group_name_H-M		'P1'
_symmetry_Int_Tables_number		1
_symmetry_cell_setting		Monoclinic

loop_
_symmetry_equiv_pos_as_xyz
'+x,+y,+z'

loop_
_atom_site_label
_atom_site_type_symbol
_atom_site_fract_x
_atom_site_fract_y
_atom_site_fract_z
0	C	0.428713	0.356067	0.416766
0	C	0.711084	0.0597984	0.74419
0	C	0.0251528	0.650113	0.0749395
0	C	0.684176	0.706597	0.416211
0	C	0.401132	0.0023593	0.744013
0	C	0.0869065	0.411792	0.0748365
0	H	0.463023	0.421769	0.353968
0	H	0.644212	0.0269989	0.680575
0	H	0.0550305	0.61629	0.0112855
0	H	0.650169	0.641031	0.353223
0	H	0.467747	0.0352296	0.679996
0	H	0.0570108	0.445581	0.0111609
0	C	0.355407	0.343366	0.507473
0	C	0.72015	0.996989	0.831092
0	C	0.0926458	0.724025	0.161882
0	C	0.757467	0.719436	0.507002
0	C	0.392018	0.0651904	0.830856
0	C	0.0194072	0.33783	0.161741
0	H	0.334152	0.399847	0.515561
0	H	0.659823	0.916234	0.835028
0	H	0.174039	0.746448	0.16525
0	H	0.778979	0.663143	0.514976
0	H	0.45217	0.146019	0.834475
0	H	0.938001	0.315379	0.165031
0	C	0.309681	0.258998	0.588199
0	C	0.80591	0.0373655	0.912599
0	C	0.055881	0.768515	0.244188
0	C	0.80275	0.80363	0.588017
0	C	0.306418	0.0248052	0.912578
0	C	0.0561666	0.293362	0.244068
0	H	0.252322	0.249788	0.65844
0	H	0.812651	0.987764	0.980334
0	H	0.108688	0.825886	0.312994
0	H	0.860116	0.812986	0.658354
0	H	0.299588	0.0744705	0.980106
0	H	0.0033575	0.235945	0.312821
0	C	0.338028	0.187281	0.578923
0	C	0.882362	0.141062	0.908225
0	C	0.951588	0.739478	0.239287
0	C	0.773891	0.874989	0.578969
0	C	0.230185	0.921033	0.908586
0	C	0.160481	0.322483	0.239256
0	H	0.303034	0.121494	0.64206
0	H	0.949409	0.172822	0.971715
0	H	0.922932	0.774249	0.303394
0	H	0.808521	0.940631	0.642376
0	H	0.163394	0.889195	0.972483
0	H	0.189124	0.287748	0.303434
0	C	0.41134	0.199687	0.488537
0	C	0.873276	0.20434	0.82234
0	C	0.883806	0.665827	0.152384
0	C	0.700537	0.862402	0.488599
0	C	0.239245	0.857761	0.822674
0	C	0.228256	0.396108	0.152365
0	H	0.434098	0.144012	0.482663
0	H	0.932111	0.285723	0.820625
0	H	0.801972	0.64247	0.149558
0	H	0.67737	0.917787	0.482853
0	H	0.18045	0.776367	0.821107
0	H	0.310109	0.419507	0.149557
0	C	0.456686	0.283925	0.40678
0	C	0.787881	0.163577	0.73934
0	C	0.920481	0.620743	0.0702284
0	C	0.655654	0.778364	0.406477
0	C	0.324539	0.898517	0.739475
0	C	0.191577	0.441167	0.0701487
0	C	0.536011	0.294425	0.310753
0	C	0.780729	0.235243	0.649283
0	C	0.843457	0.538101	0.981669
0	C	0.576211	0.767697	0.310549
0	C	0.331686	0.826817	0.649477
0	C	0.268606	0.523783	0.98154
0	H	0.522746	0.21745	0.288636
0	H	0.860289	0.305702	0.63387
0	H	0.77335	0.544033	0.966927
0	H	0.589391	0.84463	0.288325
0	H	0.252146	0.756283	0.634286
0	H	0.338689	0.517804	0.966757
0	C	0.64914	0.369195	0.354788
0	C	0.702483	0.262641	0.697096
0	C	0.812174	0.431886	0.0309492
0	C	0.463171	0.69292	0.354865
0	C	0.410122	0.799531	0.696966
0	C	0.299957	0.630018	0.0308557
0	H	0.658401	0.397713	0.453076
0	H	0.669178	0.233195	0.792365
0	H	0.840996	0.43072	0.127478
0	H	0.454128	0.664607	0.453217
0	H	0.44364	0.829063	0.792145
0	H	0.271152	0.631181	0.127319
0	H	0.701819	0.341486	0.337276
0	H	0.732009	0.344682	0.689886
0	H	0.727841	0.373742	0.0227431
0	H	0.410388	0.720514	0.337384
0	H	0.380657	0.717495	0.689815
0	H	0.384325	0.688119	0.0227097
0	O	0.689563	0.460264	0.274316
0	O	0.613047	0.212246	0.609393
0	O	0.863804	0.396722	0.945783
0	O	0.422703	0.601748	0.274589
0	O	0.499369	0.84993	0.608976
0	O	0.248463	0.665295	0.945633
0	C	0.621485	0.44255	0.177172
0	C	0.636331	0.173948	0.505954
0	C	0.905452	0.459758	0.842119
0	C	0.490625	0.619437	0.177237
0	C	0.475774	0.888077	0.505662
0	C	0.20671	0.602235	0.842012
0	O	0.642129	0.506779	0.0974039
0	O	0.575697	0.136163	0.418164
0	O	0.946325	0.440525	0.757306
0	O	0.469872	0.555129	0.0975399
0	O	0.536141	0.925719	0.417574
0	O	0.165782	0.621484	0.757288
0	N	0.532254	0.342711	0.188351
0	N	0.735932	0.188257	0.521474
0	N	0.890152	0.541657	0.853907
0	N	0.579843	0.719301	0.188182
0	N	0.376194	0.873738	0.521549
0	N	0.221905	0.52026	0.853802
0	C	0.449545	0.287694	0.0982592
0	C	0.795037	0.169326	0.431531
0	C	0.908969	0.617458	0.760963
0	C	0.662468	0.77427	0.0979343
0	C	0.317002	0.892751	0.431842
0	C	0.202827	0.444323	0.760938
0	O	0.38429	0.199963	0.120438
0	O	0.883927	0.198169	0.458211
0	O	0.876772	0.672082	0.78203
0	O	0.727766	0.861994	0.120046
0	O	0.228198	0.864069	0.458736
0	O	0.234556	0.38933	0.782205
0	C	0.453853	0.347539	0.981286
0	C	0.738121	0.112565	0.311172
0	C	0.970549	0.62192	0.644222
0	C	0.658051	0.714383	0.980993
0	C	0.373765	0.949388	0.3113
0	C	0.141456	0.440108	0.64407
0	H	0.478875	0.428201	0.00961533
0	H	0.65584	0.0481481	0.336806
0	H	0.0363957	0.61141	0.674306
0	H	0.633133	0.633723	0.00940875
0	H	0.456029	0.0138349	0.336793
0	H	0.0756056	0.450621	0.674183
0	C	0.34655	0.29772	0.92003
0	C	0.793904	0.0660841	0.249086
0	C	0.0185653	0.725298	0.580105
0	C	0.765246	0.764214	0.919471
0	C	0.317861	0.995783	0.249199
0	C	0.0934736	0.336832	0.579721
0	H	0.288133	0.292559	0.986713
0	H	0.800115	0.0139685	0.313811
0	H	0.0757517	0.787039	0.642096
0	H	0.823858	0.769688	0.986093
0	H	0.311689	0.0479628	0.313844
0	H	0.0364575	0.274962	0.641647
0	H	0.318251	0.220511	0.886194
0	H	0.873431	0.123702	0.2192
0	H	0.960117	0.743086	0.553837
0	H	0.793282	0.841272	0.885266
0	H	0.238312	0.938148	0.21944
0	H	0.151936	0.319154	0.553046
0	H	0.347523	0.342826	0.838173
0	H	0.751325	0.0208411	0.16453
0	H	0.0612765	0.729168	0.493123
0	H	0.764213	0.718962	0.837768
0	H	0.360359	0.0409477	0.164568
0	H	0.0506318	0.333054	0.492929
0	C	0.533284	0.354939	0.88688
0	C	0.727405	0.180918	0.217959
0	C	0.902618	0.536684	0.552056
0	C	0.57841	0.706781	0.886765
0	C	0.384372	0.880966	0.21812
0	C	0.209486	0.525402	0.552022
0	O	0.587391	0.319177	0.897247
0	O	0.765352	0.272162	0.226196
0	O	0.809834	0.473555	0.561526
0	O	0.524315	0.742554	0.897052
0	O	0.346293	0.789689	0.226508
0	O	0.302282	0.588498	0.561755
0	O	0.537347	0.410642	0.785587
0	O	0.66499	0.123351	0.121078
0	O	0.962433	0.53873	0.45516
0	O	0.574056	0.650759	0.785698
0	O	0.446831	0.938434	0.121165
0	O	0.149752	0.523472	0.455107
0	C	0.606559	0.424036	0.681147
0	C	0.636046	0.170778	0.0243247
0	C	0.91618	0.456855	0.361912
0	C	0.50451	0.636956	0.681516
0	C	0.475434	0.89081	0.0242699
0	C	0.196101	0.60537	0.361884
0	H	0.59966	0.47678	0.619
0	H	0.555167	0.110743	0.00256068
0	H	0.97841	0.441933	0.345827
0	H	0.508914	0.581795	0.621385
0	H	0.556341	0.950778	0.00227044
0	H	0.134168	0.620803	0.346306
0	H	0.577229	0.350246	0.635241
0	H	0.688343	0.187981	0.943001
0	H	0.899619	0.486536	0.276502
0	H	0.535362	0.710098	0.6332
0	H	0.42298	0.873641	0.943148
0	H	0.212071	0.575442	0.276253
0	H	0.686396	0.45725	0.7156
0	H	0.640918	0.239574	0.0595049
0	H	0.845381	0.389308	0.398057
0	H	0.42519	0.606258	0.716636
0	H	0.470504	0.821965	0.0593743
0	H	0.267279	0.672659	0.397782
