#******************************************
#
# CIF file created by Zeo++
# Zeo++ is an open source package to
# analyze microporous materials
#
#*******************************************

_cell_length_a		14.4322(0)
_cell_length_b		14.4397(0)
_cell_length_c		7.23116(0)
_cell_angle_alpha		90(0)
_cell_angle_beta		90(0)
_cell_angle_gamma		90(0)

_symmetry_space_group_name_H-M		'P1'
_symmetry_Int_Tables_number		1
_symmetry_cell_setting		Monoclinic

loop_
_symmetry_equiv_pos_as_xyz
'+x,+y,+z'

loop_
_atom_site_label
_atom_site_type_symbol
_atom_site_fract_x
_atom_site_fract_y
_atom_site_fract_z
0	C	0.786151	0.286589	0.842194
0	C	0.268824	0.767673	0.340497
0	C	0.776128	0.804964	0.118292
0	C	0.278695	0.249229	0.619643
0	C	0.88977	0.31268	0.808102
0	C	0.165266	0.741615	0.306148
0	C	0.753217	0.907015	0.0626419
0	C	0.301468	0.14721	0.5636
0	C	0.892344	0.383614	0.645218
0	C	0.162605	0.670877	0.1428
0	C	0.678129	0.903164	0.907258
0	C	0.376418	0.151175	0.407902
0	C	0.846274	0.346213	0.469708
0	C	0.208679	0.708335	0.967367
0	C	0.710615	0.847249	0.73961
0	C	0.343722	0.207186	0.240563
0	C	0.743952	0.326974	0.508194
0	C	0.310964	0.727621	0.00612836
0	C	0.723682	0.746757	0.799501
0	C	0.330718	0.30764	0.300753
0	C	0.729266	0.257044	0.667918
0	C	0.325718	0.797289	0.166316
0	C	0.796429	0.736383	0.955698
0	C	0.258231	0.317938	0.457391
0	C	0.927584	0.362586	0.981325
0	C	0.127394	0.691424	0.478849
0	C	0.709151	0.957562	0.229089
0	C	0.345562	0.0965146	0.729755
0	C	0.951918	0.229087	0.767043
0	C	0.103079	0.825235	0.265274
0	C	0.838024	0.962457	0.99897
0	C	0.21664	0.091842	0.499798
0	O	0.990243	0.400383	0.610302
0	O	0.0646649	0.654479	0.10775
0	O	0.660858	0.998724	0.853411
0	O	0.393767	0.055651	0.35399
0	C	0.008871	0.485545	0.51379
0	C	0.0457148	0.569041	0.0125435
0	C	0.575233	0.0107146	0.7539
0	C	0.479296	0.0436652	0.254058
0	C	0.756092	0.159917	0.597792
0	C	0.298937	0.89452	0.0967209
0	C	0.892961	0.751688	0.870162
0	C	0.161533	0.30278	0.372532
0	C	0.624721	0.253967	0.725896
0	C	0.430252	0.800182	0.224346
0	C	0.792914	0.635792	0.0377846
0	C	0.262058	0.41848	0.539674
0	C	0.609704	0.249169	0.934705
0	C	0.445164	0.804901	0.433197
0	C	0.807228	0.634999	0.246966
0	C	0.247829	0.419217	0.748875
0	C	0.675527	0.197605	0.0547786
0	C	0.379415	0.856473	0.55348
0	C	0.875197	0.700454	0.328841
0	C	0.179876	0.353728	0.830613
0	C	0.776868	0.212908	0.995232
0	C	0.278085	0.841315	0.493708
0	C	0.853411	0.800323	0.265549
0	C	0.201561	0.253862	0.76721
0	C	0.562105	0.336235	0.667445
0	C	0.492725	0.71779	0.165869
0	C	0.701696	0.580383	0.0130842
0	C	0.353318	0.473802	0.514719
0	C	0.491616	0.347879	0.826512
0	C	0.563295	0.706302	0.324828
0	C	0.681255	0.534272	0.202055
0	C	0.37377	0.519886	0.703757
0	C	0.534619	0.297284	0.988027
0	C	0.520215	0.756746	0.486483
0	C	0.749434	0.576817	0.334421
0	C	0.30565	0.477409	0.836277
0	O	0.483537	0.442493	0.895815
0	O	0.571505	0.611715	0.394176
0	O	0.583977	0.548292	0.25009
0	O	0.471076	0.505821	0.751555
0	H	0.752103	0.351672	0.893964
0	H	0.302747	0.702537	0.39241
0	H	0.710753	0.777691	0.186442
0	H	0.344222	0.276386	0.687442
0	H	0.859733	0.450036	0.688015
0	H	0.195065	0.604309	0.18534
0	H	0.612408	0.874331	0.963466
0	H	0.442179	0.18014	0.46405
0	H	0.882452	0.282901	0.422539
0	H	0.172455	0.771565	0.920223
0	H	0.775487	0.876608	0.683049
0	H	0.278776	0.177865	0.184301
0	H	0.853298	0.396873	0.35543
0	H	0.201714	0.657736	0.853079
0	H	0.659758	0.852047	0.625337
0	H	0.394437	0.202486	0.125998
0	H	0.709783	0.300772	0.380856
0	H	0.345108	0.754081	0.878928
0	H	0.743646	0.703664	0.679161
0	H	0.310543	0.350807	0.180643
0	H	0.708439	0.39344	0.54088
0	H	0.346448	0.661125	0.0383814
0	H	0.655798	0.718185	0.845608
0	H	0.398661	0.336197	0.346489
0	H	0.929965	0.31616	0.101218
0	H	0.125153	0.737674	0.598968
0	H	0.759493	0.969306	0.339836
0	H	0.295338	0.0847235	0.840726
0	H	0.998508	0.386894	0.955363
0	H	0.0564023	0.667334	0.452714
0	H	0.683063	0.0258135	0.184429
0	H	0.371599	0.028248	0.684778
0	H	0.885024	0.422286	0.0196169
0	H	0.169728	0.631477	0.516694
0	H	0.651192	0.918798	0.288326
0	H	0.40352	0.135239	0.788993
0	H	0.021438	0.251652	0.722112
0	H	0.0336059	0.802735	0.220288
0	H	0.816894	0.0310191	0.94574
0	H	0.237733	0.0233162	0.446302
0	H	0.960644	0.18484	0.888501
0	H	0.0943144	0.869371	0.386899
0	H	0.886914	0.973853	0.112315
0	H	0.167805	0.0803458	0.613163
0	H	0.923314	0.186037	0.65519
0	H	0.131684	0.868393	0.15357
0	H	0.875425	0.926516	0.887438
0	H	0.179197	0.127863	0.388439
0	H	0.0847718	0.483864	0.495901
0	H	0.96974	0.570507	0.996311
0	H	0.576059	0.0850282	0.717241
0	H	0.478496	0.969313	0.217722
0	H	0.973862	0.486619	0.3795
0	H	0.0797621	0.567811	0.877206
0	H	0.574052	0.967918	0.628907
0	H	0.480241	0.0863495	0.128919
0	H	0.987724	0.544901	0.597891
0	H	0.0675345	0.50991	0.0965239
0	H	0.516317	0.994666	0.843417
0	H	0.538332	0.0598731	0.343172
0	H	0.740402	0.105653	0.70028
0	H	0.314534	0.948622	0.199663
0	H	0.949252	0.734799	0.967222
0	H	0.105444	0.319647	0.469994
0	H	0.720012	0.141939	0.469899
0	H	0.335093	0.912712	0.969048
0	H	0.902971	0.70951	0.7458
0	H	0.151301	0.345022	0.248344
0	H	0.830827	0.155551	0.568737
0	H	0.224218	0.898891	0.067473
0	H	0.902515	0.824516	0.829422
0	H	0.151835	0.229975	0.331714
0	H	0.593634	0.188947	0.6661
0	H	0.461455	0.865157	0.164682
0	H	0.850647	0.594831	0.974063
0	H	0.204352	0.459532	0.476117
0	H	0.659774	0.12157	0.0498766
0	H	0.395286	0.932482	0.548886
0	H	0.947049	0.681287	0.284759
0	H	0.108045	0.372979	0.786604
0	H	0.666944	0.218972	0.201652
0	H	0.387913	0.834952	0.700279
0	H	0.875314	0.696712	0.482065
0	H	0.179713	0.35739	0.983838
0	H	0.818582	0.23356	0.116945
0	H	0.236409	0.820592	0.615385
0	H	0.832888	0.842252	0.386913
0	H	0.222201	0.211993	0.88854
0	H	0.806362	0.145642	0.947571
0	H	0.248619	0.908609	0.446167
0	H	0.918083	0.832107	0.211339
0	H	0.136837	0.222088	0.713269
0	H	0.528296	0.324277	0.533544
0	H	0.526363	0.729512	0.0317032
0	H	0.706885	0.528848	0.901641
0	H	0.34814	0.525253	0.403055
0	H	0.602061	0.401612	0.652295
0	H	0.452708	0.652404	0.151278
0	H	0.642276	0.625267	0.974653
0	H	0.412781	0.428948	0.476214
0	H	0.420652	0.323622	0.788638
0	H	0.634212	0.730608	0.286894
0	H	0.683863	0.457379	0.195508
0	H	0.371181	0.596785	0.697104
0	H	0.50729	0.306517	0.125028
0	H	0.547428	0.747366	0.623474
0	H	0.744026	0.562635	0.479876
0	H	0.311144	0.491547	0.981766
