#******************************************
#
# CIF file created by Zeo++
# Zeo++ is an open source package to
# analyze microporous materials
#
#*******************************************

_cell_length_a		17.7883(0)
_cell_length_b		17.6439(0)
_cell_length_c		15.0956(0)
_cell_angle_alpha		90(0)
_cell_angle_beta		90(0)
_cell_angle_gamma		116.393(0)

_symmetry_space_group_name_H-M		'P1'
_symmetry_Int_Tables_number		1
_symmetry_cell_setting		Monoclinic

loop_
_symmetry_equiv_pos_as_xyz
'+x,+y,+z'

loop_
_atom_site_label
_atom_site_type_symbol
_atom_site_fract_x
_atom_site_fract_y
_atom_site_fract_z
0	O	0.674206	0.807989	0.538413
0	O	0.00516809	0.777233	0.88626
0	O	0.0441423	0.154023	0.185919
0	O	0.159308	0.0600872	0.0470017
0	O	0.823665	0.0780958	0.368517
0	O	0.768944	0.697259	0.682199
0	O	0.390231	0.953687	0.352779
0	O	0.877886	0.368448	0.69328
0	O	0.459633	0.464327	0.0283479
0	O	0.44123	0.913113	0.860572
0	O	0.942727	0.494422	0.192689
0	O	0.362466	0.40502	0.527947
0	O	0.42482	0.820492	0.497838
0	O	0.0134154	0.516472	0.839636
0	O	0.297309	0.438449	0.170363
0	O	0.401137	0.0408205	0.0058656
0	O	0.804728	0.343584	0.337209
0	O	0.523366	0.425683	0.669109
0	O	0.399267	0.921229	0.572367
0	O	0.912717	0.401758	0.914155
0	O	0.416458	0.452923	0.245173
0	O	0.426538	0.938936	0.0782934
0	O	0.901884	0.458819	0.41422
0	O	0.40504	0.413423	0.744085
0	O	0.544012	0.0612037	0.249159
0	O	0.776322	0.434718	0.592774
0	O	0.418149	0.307205	0.920562
0	O	0.287842	0.804071	0.753389
0	O	0.0462405	0.433213	0.093975
0	O	0.408654	0.565089	0.421299
0	O	0.479335	0.211856	0.5829
0	O	0.622349	0.253216	0.937898
0	O	0.593488	0.312645	0.257056
0	O	0.344061	0.645169	0.0826502
0	O	0.195574	0.612783	0.43358
0	O	0.224941	0.548988	0.756113
0	O	0.647767	0.134427	0.612711
0	O	0.702667	0.465918	0.958925
0	O	0.374852	0.18839	0.280668
0	O	0.175563	0.725295	0.113715
0	O	0.114607	0.398999	0.46186
0	O	0.451553	0.677935	0.783242
0	O	0.277508	0.884938	0.263026
0	O	0.942172	0.323775	0.590339
0	O	0.500146	0.578707	0.937869
0	O	0.547941	0.981218	0.763469
0	O	0.87972	0.54111	0.0900629
0	O	0.322724	0.296027	0.430372
0	N	0.545748	0.818739	0.401613
0	N	0.0165681	0.644007	0.751924
0	N	0.183894	0.32533	0.0691218
0	N	0.281435	0.0434787	0.90726
0	N	0.807057	0.218298	0.249322
0	N	0.63853	0.538082	0.568724
0	C	0.622687	0.936626	0.257942
0	C	0.901249	0.624319	0.60903
0	C	0.226224	0.242587	0.925312
0	C	0.205996	0.925996	0.762584
0	C	0.92489	0.242834	0.108225
0	C	0.600038	0.623665	0.426162
0	C	0.616471	0.919934	0.173106
0	C	0.920607	0.637185	0.525
0	C	0.216605	0.252699	0.840968
0	C	0.212153	0.940956	0.677369
0	C	0.903524	0.228047	0.0248261
0	C	0.609838	0.614466	0.341672
0	C	0.611092	0.902837	0.0891195
0	C	0.9404	0.650733	0.441845
0	C	0.206092	0.262039	0.757374
0	C	0.217687	0.956325	0.592994
0	C	0.881826	0.212136	0.942339
0	C	0.62104	0.606569	0.257924
0	C	0.455826	0.793501	0.269037
0	C	0.0409178	0.57907	0.616339
0	C	0.248347	0.417524	0.939674
0	C	0.371327	0.0694706	0.774595
0	C	0.781065	0.283981	0.115291
0	C	0.572511	0.447	0.439004
0	C	0.462837	0.881811	0.281167
0	C	0.95241	0.50868	0.6259
0	C	0.324586	0.401253	0.952841
0	C	0.36565	0.981757	0.787463
0	C	0.869106	0.35511	0.125031
0	C	0.497849	0.465894	0.452099
0	C	0.407391	0.881553	0.360842
0	C	0.950422	0.449258	0.702771
0	C	0.37442	0.453145	0.0343737
0	C	0.420846	0.983153	0.867887
0	C	0.869713	0.41397	0.201837
0	C	0.44705	0.414266	0.533282
0	C	0.463738	0.896856	0.445569
0	C	0.936828	0.490717	0.789763
0	C	0.334001	0.395345	0.117315
0	C	0.363271	0.965522	0.951931
0	C	0.882442	0.371961	0.288873
0	C	0.488369	0.470811	0.616734
0	C	0.470055	0.966989	0.513436
0	C	0.867298	0.433976	0.857222
0	C	0.393383	0.381235	0.185398
0	C	0.356566	0.894034	0.018143
0	C	0.949824	0.429034	0.357963
0	C	0.430097	0.486062	0.685392
0	C	0.45718	0.0393364	0.476843
0	C	0.795228	0.358076	0.818773
0	C	0.474244	0.386644	0.149679
0	C	0.370371	0.822612	0.980387
0	C	0.0214658	0.506407	0.321325
0	C	0.350361	0.483615	0.649899
0	C	0.573818	0.03598	0.307496
0	C	0.80049	0.485113	0.653209
0	C	0.36495	0.279112	0.977565
0	C	0.2559	0.82723	0.811464
0	C	0.0221205	0.382488	0.154099
0	C	0.461963	0.591055	0.478345
0	C	0.553934	0.941264	0.312551
0	C	0.894727	0.548241	0.660018
0	C	0.294039	0.307286	0.982228
0	C	0.274464	0.921533	0.817921
0	C	0.928341	0.31754	0.15946
0	C	0.530694	0.559888	0.482244
0	C	0.641016	0.0974256	0.368296
0	C	0.739072	0.495901	0.715029
0	C	0.358554	0.206705	0.0360235
0	C	0.187822	0.763676	0.869847
0	C	0.0838493	0.373068	0.216717
0	C	0.47103	0.663479	0.538252
0	C	0.611108	0.120829	0.45502
0	C	0.716073	0.44306	0.800344
0	C	0.405237	0.231062	0.124969
0	C	0.216655	0.740033	0.957158
0	C	0.103842	0.424539	0.30299
0	C	0.423493	0.639229	0.626661
0	C	0.522347	0.109618	0.449043
0	C	0.726402	0.363262	0.791232
0	C	0.478966	0.317297	0.121261
0	C	0.305772	0.752123	0.952039
0	C	0.0915522	0.503287	0.294601
0	C	0.34806	0.554283	0.621996
0	C	0.548853	0.999172	0.572006
0	C	0.835691	0.483659	0.917785
0	C	0.348353	0.30155	0.242415
0	C	0.277205	0.859987	0.0759189
0	C	0.982022	0.379921	0.418518
0	C	0.477202	0.564708	0.743317
0	C	0.625002	0.0735352	0.534568
0	C	0.763285	0.497006	0.880928
0	C	0.34452	0.221357	0.201947
0	C	0.20137	0.786956	0.0361443
0	C	0.0558931	0.368774	0.382285
0	C	0.48268	0.646153	0.704351
0	C	0.548815	0.90404	0.407987
0	C	0.931277	0.572157	0.756074
0	C	0.261288	0.313692	0.0770172
0	C	0.278449	0.958177	0.913453
0	C	0.890958	0.292058	0.255024
0	C	0.562353	0.551719	0.577038
0	C	0.41604	0.741564	0.204652
0	C	0.0931481	0.587243	0.551984
0	C	0.239579	0.463578	0.876422
0	C	0.409639	0.120498	0.709062
0	C	0.727693	0.27717	0.0526555
0	C	0.579981	0.399868	0.376123
0	C	0.501966	0.769141	0.338589
0	C	0.0657728	0.644803	0.688549
0	C	0.180133	0.374092	0.00714664
0	C	0.325064	0.0933599	0.84433
0	C	0.75774	0.21675	0.185722
0	C	0.641067	0.488941	0.50649
0	C	0.32721	0.950789	0.295932
0	C	0.878483	0.311338	0.630003
0	C	0.516418	0.525737	0.972072
0	C	0.501011	0.915798	0.799231
0	C	0.943107	0.552132	0.129513
0	C	0.306027	0.34668	0.469167
0	C	0.336547	0.0340199	0.287717
0	C	0.797031	0.244395	0.623377
0	C	0.588126	0.511345	0.965924
0	C	0.492138	0.832776	0.791105
0	C	0.025189	0.617957	0.123038
0	C	0.233791	0.360244	0.465845
0	C	0.375251	0.832242	0.567855
0	C	0.000681244	0.458437	0.912224
0	C	0.35363	0.482982	0.24233
0	C	0.449469	0.0277964	0.0764232
0	C	0.814381	0.400827	0.409795
0	C	0.46608	0.381031	0.740353
0	C	0.724825	0.190748	0.61667
0	C	0.644017	0.489799	0.960822
0	C	0.354417	0.108802	0.282254
0	C	0.0979036	0.670412	0.116424
0	C	0.175639	0.378544	0.462442
0	C	0.473022	0.757713	0.78583
0	C	0.696046	0.85245	0.478657
0	C	0.988102	0.783667	0.814669
0	C	0.0447713	0.131118	0.115286
0	C	0.13563	0.00997006	0.992342
0	C	0.844115	0.0786701	0.296722
0	C	0.765387	0.712665	0.609246
0	C	0.447211	0.167275	0.642769
0	C	0.672994	0.26588	0.992548
0	C	0.585426	0.353545	0.313646
0	C	0.377485	0.692077	0.140477
0	C	0.14636	0.59935	0.490016
0	C	0.233461	0.50895	0.813342
0	H	0.679921	0.948074	0.294374
0	H	0.888889	0.670025	0.647806
0	H	0.184188	0.184409	0.959719
0	H	0.148993	0.915914	0.798684
0	H	0.941725	0.199836	0.146361
0	H	0.643604	0.68054	0.461581
0	H	0.497659	0.704948	0.333246
0	H	0.130009	0.696674	0.684578
0	H	0.124071	0.385545	0.00198271
0	H	0.328909	0.157351	0.839055
0	H	0.694506	0.163284	0.180412
0	H	0.696284	0.476042	0.501173
0	H	0.884309	0.0153237	0.10225
0	H	0.209177	0.714339	0.309487
0	H	0.0747312	0.316207	0.655372
0	H	0.934393	0.841352	0.630129
0	H	0.669939	0.123913	0.824223
0	H	0.764779	0.576184	0.143929
0	H	0.849357	0.0290834	0.0978817
0	H	0.218258	0.732708	0.262587
0	H	0.0717707	0.323758	0.605872
0	H	0.978192	0.846757	0.642309
0	H	0.655129	0.117156	0.776062
0	H	0.756394	0.556444	0.097664
0	H	0.627727	0.950427	0.0375709
0	H	0.894876	0.627036	0.38851
0	H	0.237626	0.245186	0.704971
0	H	0.200468	0.907589	0.54262
0	H	0.925552	0.237301	0.887601
0	H	0.591607	0.626351	0.205805
0	H	0.588296	0.839068	0.063092
0	H	0.00443203	0.685549	0.418459
0	H	0.165709	0.288834	0.732605
0	H	0.241166	0.0195779	0.565446
0	H	0.817699	0.173736	0.920883
0	H	0.659948	0.578305	0.232725
0	H	0.445968	0.905553	0.219024
0	H	0.928842	0.47375	0.562016
0	H	0.364322	0.416096	0.891735
0	H	0.38341	0.95828	0.725807
0	H	0.892082	0.390183	0.0611638
0	H	0.458472	0.452418	0.390803
0	H	0.347488	0.822747	0.365868
0	H	0.00781323	0.439368	0.706382
0	H	0.374236	0.515906	0.0405362
0	H	0.47951	0.0430575	0.873875
0	H	0.812477	0.424069	0.204606
0	H	0.445474	0.350718	0.538716
0	H	0.39223	0.0299564	0.475388
0	H	0.803665	0.300503	0.815262
0	H	0.526981	0.449832	0.149442
0	H	0.435575	0.832719	0.97891
0	H	0.0116271	0.563169	0.3184
0	H	0.296342	0.421288	0.649122
0	H	0.69053	0.0766177	0.380862
0	H	0.758815	0.563963	0.728664
0	H	0.291833	0.160051	0.045148
0	H	0.13707	0.782884	0.881624
0	H	0.0657516	0.305169	0.229391
0	H	0.538347	0.707888	0.548081
0	H	0.674866	0.157944	0.330446
0	H	0.678597	0.476086	0.677256
0	H	0.385972	0.170114	0.998064
0	H	0.15604	0.70378	0.830577
0	H	0.145025	0.394834	0.179827
0	H	0.446149	0.70273	0.500836
0	H	0.652638	0.190446	0.466356
0	H	0.647022	0.422857	0.812084
0	H	0.431165	0.184073	0.137523
0	H	0.175382	0.670315	0.968113
0	H	0.172921	0.446193	0.316174
0	H	0.399372	0.687627	0.639528
0	H	0.514861	0.162969	0.421268
0	H	0.673496	0.309826	0.761229
0	H	0.536505	0.319056	0.0939552
0	H	0.314002	0.699284	0.923963
0	H	0.144332	0.558012	0.266134
0	H	0.291403	0.554586	0.594712
0	H	0.53203	0.0190159	0.63763
0	H	0.815103	0.447512	0.982259
0	H	0.383331	0.313483	0.30767
0	H	0.293466	0.837883	0.140466
0	H	0.00128429	0.415546	0.483489
0	H	0.443077	0.553	0.809037
0	H	0.563439	0.946816	0.592394
0	H	0.888018	0.544182	0.940281
0	H	0.285622	0.293554	0.263946
0	H	0.262489	0.911608	0.0987881
0	H	0.930307	0.318578	0.439934
0	H	0.539703	0.570931	0.763309
0	H	0.679361	0.0594354	0.524494
0	H	0.778824	0.564928	0.87267
0	H	0.279414	0.173087	0.187921
0	H	0.14808	0.802382	0.0241516
0	H	0.0417314	0.30133	0.372895
0	H	0.548264	0.693995	0.691964
0	H	0.603947	0.942964	0.449696
0	H	0.893269	0.592441	0.799466
0	H	0.244691	0.256075	0.117687
0	H	0.222933	0.918988	0.954555
0	H	0.92959	0.272908	0.298807
0	H	0.580053	0.609208	0.618206
0	H	0.308391	0.800287	0.550016
0	H	0.0341131	0.420283	0.898172
0	H	0.385703	0.551056	0.227504
0	H	0.516745	0.0609808	0.0606056
0	H	0.780156	0.437957	0.39438
0	H	0.432455	0.31336	0.72416
0	H	0.392201	0.810912	0.630021
0	H	0.019593	0.496286	0.97359
0	H	0.316518	0.465773	0.303868
0	H	0.430642	0.0469752	0.138756
0	H	0.794624	0.362627	0.470827
0	H	0.502807	0.396166	0.802166
