#******************************************
#
# CIF file created by Zeo++
# Zeo++ is an open source package to
# analyze microporous materials
#
#*******************************************

_cell_length_a		13.0342(0)
_cell_length_b		10.6056(0)
_cell_length_c		36.357(0)
_cell_angle_alpha		90(0)
_cell_angle_beta		96.3544(0)
_cell_angle_gamma		90(0)

_symmetry_space_group_name_H-M		'P1'
_symmetry_Int_Tables_number		1
_symmetry_cell_setting		Monoclinic

loop_
_symmetry_equiv_pos_as_xyz
'+x,+y,+z'

loop_
_atom_site_label
_atom_site_type_symbol
_atom_site_fract_x
_atom_site_fract_y
_atom_site_fract_z
0	N	0.573401	0.419649	0.235171
0	N	0.375784	0.920825	0.277819
0	N	0.347603	0.61917	0.782043
0	N	0.544579	0.118745	0.739217
0	N	0.373561	0.450673	0.271159
0	N	0.577166	0.952419	0.241962
0	N	0.547351	0.588667	0.745911
0	N	0.343107	0.0867124	0.775066
0	N	0.347023	0.320963	0.00785589
0	N	0.576596	0.829474	0.505313
0	N	0.575222	0.717822	0.00958073
0	N	0.345277	0.208998	0.511906
0	N	0.600981	0.0949694	0.132348
0	N	0.339181	0.605963	0.37846
0	N	0.320102	0.944378	0.884785
0	N	0.582536	0.433764	0.638863
0	N	0.734568	0.859992	0.138294
0	N	0.206329	0.369103	0.371761
0	N	0.186122	0.179093	0.879049
0	N	0.715297	0.670834	0.64551
0	N	0.913988	0.457133	0.172766
0	N	0.0270556	0.958493	0.34563
0	N	0.00664587	0.582345	0.844266
0	N	0.894172	0.0803947	0.671152
0	N	0.930235	0.420167	0.0908162
0	N	0.000528995	0.931268	0.427472
0	N	0.991666	0.619016	0.926407
0	N	0.920747	0.107099	0.589383
0	N	0.158253	0.0836821	0.0324513
0	N	0.773422	0.593405	0.482907
0	N	0.763131	0.955712	0.984581
0	N	0.148983	0.445069	0.534054
0	N	0.547598	0.361355	0.0583687
0	N	0.377572	0.867823	0.453769
0	N	0.37498	0.676792	0.959096
0	N	0.5447	0.171732	0.563473
0	N	0.105901	0.951983	0.242749
0	N	0.838954	0.456099	0.271745
0	N	0.814783	0.0871896	0.774182
0	N	0.0816929	0.582433	0.745264
0	N	0.105722	0.847587	0.990366
0	N	0.816631	0.358286	0.527083
0	N	0.816446	0.191248	0.0269214
0	N	0.105421	0.680248	0.489911
0	N	0.171176	0.178202	0.204732
0	N	0.775333	0.682868	0.310047
0	N	0.749636	0.861012	0.812297
0	N	0.1463	0.35604	0.707066
0	C	0.575103	0.546898	0.180539
0	C	0.368009	0.0513256	0.331629
0	C	0.345481	0.492035	0.8367
0	C	0.552359	0.988109	0.685432
0	C	0.221718	0.527379	0.233629
0	C	0.728849	0.0307046	0.279456
0	C	0.699242	0.511941	0.783383
0	C	0.191789	0.0078479	0.737495
0	C	0.225291	0.479953	0.0237904
0	C	0.699717	0.990724	0.491989
0	C	0.696673	0.558728	0.993496
0	C	0.221851	0.0478225	0.525022
0	C	0.418756	0.0870751	0.138678
0	C	0.52207	0.596928	0.373621
0	C	0.502298	0.952557	0.878426
0	C	0.399526	0.441668	0.64355
0	C	0.616256	0.659977	0.168496
0	C	0.327585	0.166264	0.342708
0	C	0.304461	0.378934	0.848784
0	C	0.593054	0.8732	0.674452
0	C	0.220389	0.644292	0.251495
0	C	0.73094	0.146881	0.26124
0	C	0.700397	0.395043	0.765503
0	C	0.189862	0.89167	0.755724
0	C	0.1677	0.407197	0.0461738
0	C	0.759304	0.918858	0.470074
0	C	0.754043	0.631429	0.971023
0	C	0.162065	0.119726	0.546861
0	C	0.386965	0.0777918	0.100716
0	C	0.550983	0.589465	0.411803
0	C	0.534192	0.961432	0.91639
0	C	0.370909	0.449366	0.605356
0	C	0.625237	0.678036	0.130814
0	C	0.315841	0.187034	0.380058
0	C	0.295524	0.360963	0.886471
0	C	0.605031	0.852206	0.63713
0	C	0.13976	0.729976	0.241631
0	C	0.810451	0.233494	0.271692
0	C	0.780908	0.309167	0.775332
0	C	0.110371	0.804996	0.745327
0	C	0.0728299	0.452644	0.0556626
0	C	0.854482	0.965467	0.461194
0	C	0.848664	0.585816	0.961348
0	C	0.0668027	0.0731297	0.555653
0	C	0.281353	0.0783793	0.0875888
0	C	0.655874	0.589139	0.425993
0	C	0.639834	0.960535	0.929486
0	C	0.266103	0.449592	0.591063
0	C	0.595344	0.58237	0.105151
0	C	0.341906	0.0922257	0.406434
0	C	0.325348	0.456717	0.912116
0	C	0.578923	0.946754	0.610679
0	C	0.0601908	0.698768	0.214049
0	C	0.888366	0.20379	0.300028
0	C	0.86058	0.340219	0.802896
0	C	0.0323229	0.834602	0.71703
0	C	0.0368898	0.571287	0.0431564
0	C	0.888772	0.0844059	0.473968
0	C	0.884606	0.467086	0.973783
0	C	0.0326118	0.954156	0.542877
0	C	0.207312	0.0859893	0.112664
0	C	0.732107	0.594976	0.401743
0	C	0.713783	0.953011	0.904372
0	C	0.189643	0.443443	0.615217
0	C	0.554729	0.469302	0.117208
0	C	0.380793	0.976969	0.395281
0	C	0.365835	0.569819	0.900023
0	C	0.539688	0.0619514	0.621737
0	C	0.0609483	0.580955	0.196524
0	C	0.886948	0.0866634	0.317911
0	C	0.860048	0.458053	0.820426
0	C	0.0336267	0.951651	0.699101
0	C	0.0948312	0.644745	0.0207671
0	C	0.828974	0.156863	0.496008
0	C	0.826872	0.393668	0.996251
0	C	0.0925606	0.881686	0.520897
0	C	0.238938	0.0958711	0.150744
0	C	0.703337	0.603105	0.363429
0	C	0.682053	0.943519	0.866292
0	C	0.218107	0.43513	0.653549
0	C	0.544148	0.452022	0.154949
0	C	0.394506	0.957057	0.357879
0	C	0.376363	0.587005	0.86227
0	C	0.525725	0.0820963	0.659104
0	C	0.141495	0.495919	0.206005
0	C	0.807348	0.000831694	0.307889
0	C	0.779588	0.543247	0.810981
0	C	0.113209	0.037575	0.709078
0	C	0.188073	0.597883	0.0106583
0	C	0.735218	0.109147	0.505388
0	C	0.733858	0.440673	0.00653143
0	C	0.186411	0.929414	0.5116
0	C	0.34414	0.0980115	0.163543
0	C	0.598881	0.605243	0.349517
0	C	0.576827	0.941711	0.853525
0	C	0.322491	0.433088	0.667559
0	C	0.563315	0.530437	0.220359
0	C	0.38376	0.032412	0.292216
0	C	0.357164	0.508354	0.796867
0	C	0.53644	0.00716525	0.724825
0	C	0.304959	0.433448	0.242992
0	C	0.646344	0.935987	0.270002
0	C	0.615937	0.605854	0.774085
0	C	0.274235	0.102671	0.746908
0	C	0.327944	0.438086	0.0146145
0	C	0.596769	0.947487	0.500428
0	C	0.594127	0.600705	0.00275288
0	C	0.324877	0.0909637	0.516642
0	C	0.529062	0.0829637	0.153967
0	C	0.412479	0.592837	0.357459
0	C	0.391971	0.956852	0.863165
0	C	0.509017	0.445814	0.659816
0	C	0.561446	0.405793	0.274828
0	C	0.389721	0.905707	0.238351
0	C	0.359399	0.632694	0.742365
0	C	0.530581	0.133952	0.77868
0	C	0.4538	0.354018	0.280454
0	C	0.497738	0.854494	0.233051
0	C	0.466829	0.685016	0.736676
0	C	0.422436	0.184792	0.783956
0	C	0.452395	0.287513	0.999591
0	C	0.470924	0.795136	0.512974
0	C	0.469855	0.751428	0.0178212
0	C	0.450963	0.243105	0.504206
0	C	0.709845	0.0874415	0.148562
0	C	0.230929	0.597587	0.361643
0	C	0.211219	0.951852	0.868593
0	C	0.690667	0.442342	0.655802
0	C	0.662676	0.80079	0.117844
0	C	0.279332	0.311534	0.392115
0	C	0.258245	0.238129	0.89944
0	C	0.641745	0.727621	0.625209
0	C	0.141711	0.853672	0.260869
0	C	0.809145	0.357429	0.252602
0	C	0.778717	0.185455	0.756098
0	C	0.111855	0.681011	0.764393
0	C	0.0116287	0.373086	0.0787134
0	C	0.917534	0.885759	0.438827
0	C	0.909394	0.665233	0.938102
0	C	0.00351706	0.15287	0.577931
0	C	0.252865	0.0703659	0.0470179
0	C	0.680219	0.581826	0.466754
0	C	0.668394	0.968109	0.970058
0	C	0.242051	0.457109	0.550296
0	C	0.766209	0.987045	0.127421
0	C	0.174053	0.49637	0.382308
0	C	0.154741	0.0518474	0.889838
0	C	0.747706	0.543421	0.635139
0	C	0.111159	0.0762705	0.26098
0	C	0.834728	0.581078	0.253958
0	C	0.80928	0.962876	0.755971
0	C	0.0860154	0.457404	0.763022
0	C	0.866287	0.342948	0.112978
0	C	0.0658799	0.850721	0.406683
0	C	0.0549314	0.696308	0.904009
0	C	0.855082	0.18759	0.610066
0	C	0.137525	0.0775742	0.991682
0	C	0.787346	0.58893	0.523857
0	C	0.783879	0.961408	0.0253557
0	C	0.135292	0.44977	0.493107
0	C	0.52286	0.36351	0.0918366
0	C	0.4089	0.871652	0.421245
0	C	0.3975	0.675818	0.925341
0	C	0.5114	0.166932	0.595663
0	C	0.975863	0.548795	0.167305
0	C	0.969649	0.056808	0.348196
0	C	0.945342	0.489963	0.849594
0	C	0.950819	0.981261	0.668838
0	C	0.0542408	0.770655	0.00906298
0	C	0.868789	0.282601	0.508231
0	C	0.867288	0.267523	0.00779644
0	C	0.0529071	0.755913	0.508645
0	C	0.16052	0.0992277	0.177481
0	C	0.784039	0.604901	0.337553
0	C	0.76034	0.940165	0.839503
0	C	0.137105	0.43294	0.6793
0	C	0.521524	0.249374	0.0350596
0	C	0.403494	0.755963	0.477233
0	C	0.40068	0.789083	0.98232
0	C	0.518348	0.283114	0.539864
0	C	0.829148	0.426244	0.143729
0	C	0.108411	0.930055	0.376165
0	C	0.0917701	0.612891	0.873234
0	C	0.812673	0.108314	0.640617
0	C	0.0593185	0.971703	0.980266
0	C	0.862502	0.482406	0.537614
0	C	0.862496	0.0667884	0.0368232
0	C	0.0598455	0.556004	0.479358
0	C	0.0932398	0.180603	0.231349
0	C	0.854898	0.683499	0.284055
0	C	0.82736	0.858574	0.785602
0	C	0.0662835	0.355071	0.732884
0	H	0.576188	0.494975	0.291062
0	H	0.375192	0.994539	0.221886
0	H	0.345018	0.543263	0.726208
0	H	0.545325	0.0452002	0.79517
0	H	0.621655	0.337043	0.286395
0	H	0.330099	0.836445	0.226686
0	H	0.298883	0.70092	0.730727
0	H	0.590075	0.20345	0.79032
0	H	0.642545	0.73421	0.188205
0	H	0.304072	0.239898	0.322456
0	H	0.278242	0.304615	0.829097
0	H	0.616566	0.799718	0.694752
0	H	0.282872	0.669053	0.272905
0	H	0.669871	0.170479	0.239197
0	H	0.637825	0.370401	0.744115
0	H	0.251044	0.868141	0.777736
0	H	0.196845	0.315324	0.0561245
0	H	0.731523	0.826573	0.459998
0	H	0.724864	0.723339	0.961123
0	H	0.189774	0.212049	0.55694
0	H	0.445337	0.0714867	0.081216
0	H	0.490881	0.584869	0.430668
0	H	0.475889	0.967687	0.935913
0	H	0.431173	0.454244	0.586561
0	H	0.440173	0.262627	0.265275
0	H	0.511951	0.763979	0.248604
0	H	0.480245	0.776414	0.751864
0	H	0.408078	0.275283	0.768396
0	H	0.452873	0.332163	0.310514
0	H	0.499061	0.831164	0.20309
0	H	0.467547	0.706937	0.706611
0	H	0.421062	0.208146	0.81391
0	H	0.604974	0.594723	0.0758855
0	H	0.330917	0.107021	0.4355
0	H	0.315778	0.444378	0.941389
0	H	0.590127	0.931832	0.581637
0	H	0.99824	0.766388	0.206345
0	H	0.949386	0.272279	0.308096
0	H	0.922415	0.272424	0.810587
0	H	0.971317	0.766053	0.709007
0	H	0.962912	0.605566	0.0507989
0	H	0.962922	0.119775	0.466812
0	H	0.9584	0.432695	0.966006
0	H	0.958403	0.918792	0.549976
0	H	0.125485	0.0840087	0.10234
0	H	0.813385	0.592943	0.41282
0	H	0.795631	0.954763	0.914675
0	H	0.10843	0.445389	0.604058
0	H	0.491123	0.364055	0.985128
0	H	0.430649	0.871975	0.526953
0	H	0.431166	0.67509	0.0323727
0	H	0.491291	0.165889	0.49039
0	H	0.444177	0.205742	0.980276
0	H	0.478823	0.71393	0.532475
0	H	0.47807	0.83345	0.0370453
0	H	0.443072	0.323824	0.484526
0	H	0.512306	0.364218	0.164633
0	H	0.425561	0.867609	0.349017
0	H	0.408145	0.674811	0.852558
0	H	0.494381	0.171496	0.667875
0	H	0.141393	0.404934	0.191866
0	H	0.806711	0.910481	0.32235
0	H	0.779861	0.634226	0.825134
0	H	0.113759	0.127851	0.694577
0	H	0.231061	0.653472	0.992118
0	H	0.690385	0.163958	0.523541
0	H	0.691004	0.385081	0.0251186
0	H	0.231344	0.874567	0.493491
0	H	0.367884	0.10645	0.193414
0	H	0.577529	0.611565	0.319473
0	H	0.552998	0.933555	0.823652
0	H	0.343623	0.426687	0.697618
0	H	0.720693	0.0662225	0.178824
0	H	0.221632	0.576481	0.331368
0	H	0.200302	0.973388	0.838349
0	H	0.699661	0.463723	0.68606
0	H	0.545874	0.618778	0.23487
0	H	0.401904	0.120183	0.277503
0	H	0.374035	0.419858	0.782327
0	H	0.518086	0.919448	0.739522
0	H	0.300599	0.350456	0.224282
0	H	0.651456	0.852859	0.288707
0	H	0.620214	0.688689	0.792854
0	H	0.26935	0.185431	0.728064
0	H	0.384132	0.516916	0.0142557
0	H	0.541085	0.0267015	0.50189
0	H	0.53783	0.521971	0.00305322
0	H	0.380371	0.011636	0.515043
0	H	0.542029	0.0684311	0.184399
0	H	0.401414	0.576917	0.327071
0	H	0.378947	0.971812	0.832752
0	H	0.519814	0.460922	0.690243
0	H	0.745526	0.181671	0.145039
0	H	0.194354	0.691623	0.365011
0	H	0.175677	0.857498	0.872027
0	H	0.727377	0.348332	0.652545
0	H	0.622785	0.833095	0.0911498
0	H	0.320796	0.34628	0.418252
0	H	0.298489	0.20559	0.926051
0	H	0.599897	0.692108	0.599237
0	H	0.176575	0.851245	0.289975
0	H	0.780434	0.354677	0.222883
0	H	0.743468	0.187839	0.727039
0	H	0.14099	0.683656	0.794075
0	H	0.0416019	0.276453	0.0835129
0	H	0.887403	0.789171	0.433904
0	H	0.878263	0.761097	0.932772
0	H	0.0333092	0.249671	0.582706
0	H	0.319338	0.0544701	0.0311084
0	H	0.611233	0.567957	0.481561
0	H	0.601841	0.982861	0.986013
0	H	0.3111	0.471525	0.535565
0	H	0.752844	0.00617939	0.097137
0	H	0.18538	0.515177	0.412608
0	H	0.168253	0.0324463	0.920105
0	H	0.736699	0.524357	0.604852
0	H	0.850874	0.994132	0.135883
0	H	0.0896381	0.502911	0.373258
0	H	0.0700756	0.0445979	0.881413
0	H	0.832068	0.536978	0.644304
0	H	0.18572	0.092814	0.278375
0	H	0.759548	0.599053	0.237111
0	H	0.734589	0.946387	0.738655
0	H	0.161063	0.439525	0.779966
0	H	0.0499181	0.0834666	0.280145
0	H	0.894944	0.588652	0.23444
0	H	0.870316	0.955557	0.736728
0	H	0.0255402	0.449663	0.782434
0	H	0.905131	0.257065	0.125287
0	H	0.0268233	0.764961	0.394392
0	H	0.0156547	0.781917	0.891692
0	H	0.893862	0.273606	0.622299
0	H	0.797463	0.310488	0.0940671
0	H	0.132201	0.81764	0.426667
0	H	0.123896	0.729175	0.922774
0	H	0.788712	0.220233	0.590031
0	H	0.207948	0.0644198	0.977228
0	H	0.713856	0.578306	0.536595
0	H	0.713501	0.974869	0.0398151
0	H	0.208825	0.460887	0.480427
0	H	0.104012	0.170576	0.982295
0	H	0.820401	0.681889	0.533521
0	H	0.816997	0.868144	0.034687
0	H	0.102609	0.356713	0.483376
0	H	0.479543	0.288683	0.104676
0	H	0.456237	0.79812	0.409563
0	H	0.438741	0.751931	0.912214
0	H	0.462232	0.239256	0.606991
0	H	0.973186	0.609026	0.142396
0	H	0.974822	0.124701	0.371406
0	H	0.948756	0.428827	0.874332
0	H	0.94484	0.912443	0.645857
0	H	0.97728	0.791025	0.0179143
0	H	0.945924	0.303894	0.49963
0	H	0.943496	0.24637	0.998432
0	H	0.975628	0.73458	0.517114
0	H	0.0979729	0.0291906	0.171896
0	H	0.846221	0.534931	0.343928
0	H	0.822801	0.010364	0.845012
0	H	0.0741599	0.501675	0.672605
0	H	0.484883	0.170901	0.0494511
0	H	0.441494	0.678081	0.463033
0	H	0.437128	0.867589	0.967881
0	H	0.480134	0.360996	0.553985
0	H	0.596785	0.211582	0.0274708
0	H	0.328246	0.717135	0.484459
0	H	0.325311	0.826666	0.98988
0	H	0.593453	0.322131	0.532572
0	H	0.78965	0.51179	0.131125
0	H	0.147183	0.0160849	0.388727
0	H	0.131172	0.527246	0.885816
0	H	0.774124	0.0220967	0.628092
0	H	0.770154	0.373882	0.157693
0	H	0.168994	0.874841	0.363837
0	H	0.150747	0.665072	0.859213
0	H	0.751939	0.16334	0.652909
0	H	0.985364	0.99121	0.992523
0	H	0.93945	0.499567	0.527308
0	H	0.936271	0.0470906	0.0244711
0	H	0.982942	0.538519	0.489662
0	H	0.0395392	0.973126	0.94967
0	H	0.876053	0.485281	0.568396
0	H	0.882467	0.0649244	0.0674077
0	H	0.04628	0.55316	0.448578
0	H	0.012729	0.174974	0.217514
0	H	0.934666	0.673586	0.298264
0	H	0.907944	0.864179	0.799375
0	H	0.986637	0.364951	0.718565
0	H	0.100325	0.274581	0.245284
0	H	0.851291	0.778305	0.270609
0	H	0.820163	0.764592	0.771677
0	H	0.0698141	0.260209	0.746294
