#******************************************
#
# CIF file created by Zeo++
# Zeo++ is an open source package to
# analyze microporous materials
#
#*******************************************

_cell_length_a		24.4762(0)
_cell_length_b		24.5846(0)
_cell_length_c		8.01995(0)
_cell_angle_alpha		90(0)
_cell_angle_beta		90(0)
_cell_angle_gamma		120.349(0)

_symmetry_space_group_name_H-M		'P1'
_symmetry_Int_Tables_number		1
_symmetry_cell_setting		Monoclinic

loop_
_symmetry_equiv_pos_as_xyz
'+x,+y,+z'

loop_
_atom_site_label
_atom_site_type_symbol
_atom_site_fract_x
_atom_site_fract_y
_atom_site_fract_z
0	O	0.422476	0.561731	0.911223
0	O	0.449736	0.862234	0.886014
0	O	0.148367	0.585784	0.898832
0	O	0.0882309	0.894282	0.234786
0	O	0.112006	0.192489	0.232917
0	O	0.818931	0.920275	0.231772
0	O	0.755404	0.227347	0.56717
0	O	0.781384	0.526364	0.566929
0	O	0.480319	0.251647	0.565143
0	O	0.514219	0.52806	0.653642
0	O	0.481089	0.986729	0.648824
0	O	0.0225832	0.493325	0.651349
0	O	0.180841	0.861697	0.980626
0	O	0.145531	0.317601	0.981182
0	O	0.693715	0.828445	0.980316
0	O	0.847071	0.193757	0.315652
0	O	0.815325	0.651811	0.31528
0	O	0.354306	0.159978	0.315247
0	O	0.493348	0.431688	0.72013
0	O	0.577979	0.0625147	0.717976
0	O	0.947267	0.514496	0.719273
0	O	0.160619	0.765582	0.0477934
0	O	0.242299	0.394019	0.0485495
0	O	0.617879	0.849016	0.0469579
0	O	0.82757	0.0978541	0.382439
0	O	0.912201	0.728129	0.382203
0	O	0.277865	0.179646	0.382242
0	O	0.471349	0.365572	0.231795
0	O	0.642688	0.105149	0.231571
0	O	0.904257	0.536588	0.231859
0	O	0.139879	0.700323	0.560277
0	O	0.307988	0.438416	0.561521
0	O	0.5732	0.869966	0.559019
0	O	0.805284	0.0317199	0.894189
0	O	0.978655	0.772035	0.894173
0	O	0.234169	0.201775	0.894459
0	C	0.59591	0.639246	0.899604
0	C	0.369004	0.953295	0.8965
0	C	0.0535096	0.413137	0.897996
0	C	0.261588	0.973741	0.226113
0	C	0.0335534	0.286055	0.226751
0	C	0.723939	0.747687	0.227194
0	C	0.928787	0.305266	0.563643
0	C	0.703546	0.620643	0.563179
0	C	0.384345	0.0790354	0.563278
0	C	0.607863	0.694328	0.786761
0	C	0.313471	0.91062	0.782962
0	C	0.0964797	0.401073	0.784495
0	C	0.272968	0.0288639	0.114036
0	C	0.978222	0.242528	0.113636
0	C	0.767287	0.735865	0.114526
0	C	0.94131	0.360478	0.450544
0	C	0.648049	0.57743	0.45008
0	C	0.427292	0.0666343	0.450542
0	C	0.556123	0.67223	0.654112
0	C	0.334875	0.881878	0.646991
0	C	0.125828	0.45196	0.650017
0	C	0.221414	0.00670332	0.980933
0	C	0.99998	0.213178	0.980379
0	C	0.79717	0.787086	0.981109
0	C	0.890283	0.338721	0.315984
0	C	0.669767	0.548414	0.315698
0	C	0.456907	0.117383	0.315794
0	C	0.489632	0.647511	0.728891
0	C	0.359649	0.84	0.71744
0	C	0.168158	0.518569	0.722449
0	C	0.15474	0.981117	0.0551872
0	C	0.02468	0.171795	0.0545096
0	C	0.839193	0.853498	0.0549502
0	C	0.823459	0.313938	0.388504
0	C	0.694429	0.506759	0.388403
0	C	0.499282	0.184011	0.388085
0	C	0.476414	0.601825	0.875645
0	C	0.407465	0.873486	0.86017
0	C	0.13534	0.53211	0.86772
0	C	0.142032	0.935129	0.20085
0	C	0.0711783	0.205157	0.199908
0	C	0.805898	0.866663	0.199766
0	C	0.809518	0.267698	0.534308
0	C	0.740913	0.539553	0.534153
0	C	0.466652	0.197836	0.533297
0	C	0.53126	0.60974	0.989386
0	C	0.399033	0.918083	0.98084
0	C	0.0891686	0.478074	0.984974
0	C	0.196852	0.943482	0.31549
0	C	0.0632032	0.251326	0.315445
0	C	0.759236	0.812356	0.315532
0	C	0.863619	0.275421	0.650755
0	C	0.733263	0.585709	0.650474
0	C	0.420046	0.143977	0.650182
0	C	0.515087	0.545023	0.0548734
0	C	0.463537	0.967393	0.0489447
0	C	0.0402519	0.493556	0.0519363
0	C	0.181622	0.879056	0.381422
0	C	0.128073	0.30062	0.381915
0	C	0.710048	0.827679	0.381384
0	C	0.84748	0.21073	0.716602
0	C	0.798286	0.634845	0.716364
0	C	0.371241	0.159842	0.716096
0	C	0.504943	0.495483	0.950149
0	C	0.513432	0.0082879	0.945934
0	C	0.000235306	0.503203	0.948162
0	C	0.171792	0.829482	0.277227
0	C	0.178024	0.340736	0.277874
0	C	0.670393	0.837616	0.276807
0	C	0.837912	0.161305	0.612163
0	C	0.8481	0.674898	0.61187
0	C	0.331174	0.169285	0.611803
0	C	0.490702	0.435892	0.0126166
0	C	0.572926	0.0542828	0.0102518
0	C	0.954753	0.517154	0.0116467
0	C	0.158127	0.770121	0.340298
0	C	0.237796	0.386705	0.341103
0	C	0.624648	0.851371	0.339508
0	C	0.824203	0.101904	0.674895
0	C	0.907967	0.720775	0.674664
0	C	0.285382	0.182937	0.674677
0	C	0.485525	0.424822	0.183857
0	C	0.583344	0.0596261	0.181798
0	C	0.949267	0.522341	0.183081
0	C	0.153517	0.759368	0.511734
0	C	0.248581	0.392642	0.512589
0	C	0.618482	0.856027	0.510893
0	C	0.818859	0.0907987	0.846219
0	C	0.919032	0.72658	0.846
0	C	0.279718	0.188228	0.846035
0	C	0.495362	0.474204	0.292547
0	C	0.533329	0.0191029	0.28889
0	C	0.989143	0.512528	0.290879
0	C	0.163425	0.808919	0.619913
0	C	0.198703	0.35248	0.620546
0	C	0.65801	0.845967	0.619476
0	C	0.828049	0.140048	0.954584
0	C	0.869268	0.686579	0.954434
0	C	0.319937	0.179088	0.954292
0	C	0.509771	0.532337	0.228272
0	C	0.47539	0.974496	0.222757
0	C	0.0330445	0.498515	0.225556
0	C	0.177107	0.866749	0.555022
0	C	0.140446	0.30813	0.555496
0	C	0.702177	0.832166	0.554927
0	C	0.841976	0.198008	0.890008
0	C	0.81089	0.642309	0.889839
0	C	0.364095	0.16529	0.889548
0	C	0.482175	0.39095	0.872006
0	C	0.618563	0.0916457	0.870974
0	C	0.917868	0.525538	0.871866
0	C	0.149402	0.724982	0.200031
0	C	0.283134	0.423679	0.200848
0	C	0.588163	0.859933	0.198944
0	C	0.81628	0.0571142	0.534428
0	C	0.953198	0.757742	0.534246
0	C	0.248293	0.190743	0.534372
0	C	0.505422	0.491321	0.764941
0	C	0.517963	0.0141419	0.760979
0	C	0.995017	0.502438	0.763077
0	C	0.172243	0.825122	0.0920792
0	C	0.182367	0.345707	0.0927169
0	C	0.665735	0.837188	0.0916048
0	C	0.838688	0.157176	0.427024
0	C	0.852284	0.679903	0.426709
0	C	0.326143	0.168464	0.426684
0	C	0.481866	0.70157	0.797725
0	C	0.305747	0.778044	0.789245
0	C	0.230424	0.526866	0.792066
0	C	0.146106	0.03458	0.124919
0	C	0.970486	0.109711	0.124916
0	C	0.901236	0.861617	0.125757
0	C	0.815438	0.367792	0.457762
0	C	0.640192	0.444499	0.457907
0	C	0.5615	0.192285	0.458053
0	C	0.439984	0.611418	0.592907
0	C	0.393857	0.826082	0.577592
0	C	0.181868	0.567338	0.58465
0	C	0.105377	0.945048	0.918638
0	C	0.0601586	0.158166	0.917747
0	C	0.853377	0.902658	0.918023
0	C	0.77442	0.278382	0.250813
0	C	0.729978	0.493586	0.250823
0	C	0.513069	0.232687	0.249999
0	C	0.534308	0.654567	0.128089
0	C	0.354546	0.873897	0.117534
0	C	0.132362	0.476664	0.122544
0	C	0.198847	0.987806	0.454358
0	C	0.0182831	0.208531	0.45365
0	C	0.801868	0.810484	0.454112
0	C	0.865488	0.31981	0.789222
0	C	0.688574	0.542831	0.788919
0	C	0.462912	0.142344	0.788504
0	C	0.415148	0.336005	0.856452
0	C	0.673275	0.0796648	0.856215
0	C	0.930256	0.592233	0.857103
0	C	0.0822511	0.670206	0.185071
0	C	0.338061	0.412085	0.185108
0	C	0.600564	0.92663	0.183748
0	C	0.749398	0.00200928	0.518253
0	C	0.00799544	0.745961	0.518249
0	C	0.26023	0.257237	0.518063
0	C	0.532489	0.372425	0.865999
0	C	0.638019	0.160684	0.86671
0	C	0.848428	0.47542	0.86656
0	C	0.19939	0.706041	0.194296
0	C	0.302158	0.492585	0.195459
0	C	0.518749	0.809754	0.192727
0	C	0.866716	0.0387747	0.529439
0	C	0.972368	0.826691	0.529075
0	C	0.178979	0.140277	0.529351
0	C	0.458445	0.349831	0.407628
0	C	0.65785	0.107262	0.40761
0	C	0.901883	0.549539	0.407769
0	C	0.126622	0.68454	0.736019
0	C	0.323317	0.4414	0.737751
0	C	0.570536	0.882934	0.734798
0	C	0.79157	0.0154778	0.0694361
0	C	0.994588	0.774331	0.0696037
0	C	0.231718	0.214923	0.0701291
0	H	0.634077	0.654788	0.993671
0	H	0.353579	0.974622	0.993867
0	H	0.0314114	0.375674	0.993766
0	H	0.299743	0.989528	0.320344
0	H	0.0178636	0.308068	0.321498
0	H	0.701447	0.709971	0.32215
0	H	0.966409	0.320824	0.659347
0	H	0.688049	0.642525	0.658765
0	H	0.361977	0.041628	0.659081
0	H	0.598616	0.603137	0.822799
0	H	0.405139	0.993237	0.821373
0	H	0.0138668	0.409596	0.822349
0	H	0.264805	0.937988	0.148922
0	H	0.0698521	0.325447	0.150457
0	H	0.684632	0.744434	0.150568
0	H	0.932035	0.269272	0.487618
0	H	0.739817	0.660153	0.487141
0	H	0.344922	0.0757063	0.486985
0	H	0.610923	0.733988	0.860326
0	H	0.273605	0.873319	0.855912
0	H	0.133654	0.39858	0.857546
0	H	0.275322	0.068069	0.188368
0	H	0.938328	0.205497	0.187186
0	H	0.804189	0.733125	0.188231
0	H	0.944067	0.400095	0.523779
0	H	0.608167	0.540274	0.523316
0	H	0.464348	0.0640442	0.523955
0	H	0.654783	0.71405	0.726073
0	H	0.294012	0.938217	0.725137
0	H	0.0687941	0.354058	0.725378
0	H	0.320036	0.0492235	0.0539164
0	H	0.958618	0.269574	0.053485
0	H	0.739752	0.689007	0.0545843
0	H	0.988512	0.380176	0.391535
0	H	0.628452	0.604655	0.390874
0	H	0.399515	0.0195783	0.391724
0	H	0.555858	0.633982	0.579241
0	H	0.37314	0.920477	0.572324
0	H	0.0872854	0.451644	0.575637
0	H	0.221714	0.968908	0.905174
0	H	0.0382891	0.251423	0.904957
0	H	0.758955	0.786974	0.905717
0	H	0.890289	0.300569	0.241297
0	H	0.708192	0.586883	0.241029
0	H	0.41852	0.117143	0.240844
0	H	0.56691	0.711069	0.566025
0	H	0.295386	0.853936	0.559669
0	H	0.153798	0.441001	0.562009
0	H	0.23195	0.045701	0.893641
0	H	0.960717	0.184705	0.89283
0	H	0.825461	0.776359	0.893591
0	H	0.901577	0.377777	0.228143
0	H	0.630532	0.520283	0.227819
0	H	0.484895	0.106251	0.228281
0	H	0.492002	0.467384	0.428281
0	H	0.539411	0.022466	0.424906
0	H	0.985808	0.515589	0.426794
0	H	0.160626	0.802426	0.755826
0	H	0.205228	0.355947	0.756451
0	H	0.654207	0.848762	0.75533
0	H	0.824641	0.133292	0.0903166
0	H	0.875965	0.690149	0.0902073
0	H	0.316617	0.182432	0.0900518
0	H	0.516907	0.569107	0.317246
0	H	0.438087	0.944046	0.310382
0	H	0.0629592	0.491361	0.313789
0	H	0.184341	0.903665	0.643631
0	H	0.103252	0.278088	0.6439
0	H	0.731796	0.824825	0.643718
0	H	0.848614	0.234683	0.978729
0	H	0.773812	0.61231	0.978544
0	H	0.394256	0.158687	0.97816
0	H	0.517552	0.729066	0.893021
0	H	0.279418	0.786374	0.887398
0	H	0.222121	0.491782	0.888725
0	H	0.181254	0.0618622	0.221573
0	H	0.943528	0.117881	0.221406
0	H	0.892654	0.826436	0.2223
0	H	0.85055	0.394802	0.554761
0	H	0.613239	0.452395	0.55493
0	H	0.553159	0.157287	0.554943
0	H	0.434903	0.684045	0.852951
0	H	0.323457	0.748744	0.842125
0	H	0.260173	0.573859	0.846093
0	H	0.0988312	0.0165547	0.178623
0	H	0.987946	0.0803929	0.179191
0	H	0.930968	0.908556	0.180083
0	H	0.768166	0.350121	0.511161
0	H	0.657764	0.415156	0.511393
0	H	0.591236	0.239327	0.511859
0	H	0.48712	0.734575	0.698291
0	H	0.271414	0.749907	0.691986
0	H	0.258307	0.521338	0.693291
0	H	0.151687	0.0679661	0.0262702
0	H	0.93667	0.0816615	0.0266449
0	H	0.929253	0.855953	0.0276851
0	H	0.821368	0.401272	0.359001
0	H	0.606463	0.416612	0.359281
0	H	0.589412	0.186638	0.359601
0	H	0.391704	0.591418	0.641889
0	H	0.41384	0.797771	0.624004
0	H	0.210415	0.615634	0.632335
0	H	0.0570031	0.924499	0.967476
0	H	0.0803384	0.130375	0.966674
0	H	0.881746	0.95081	0.966818
0	H	0.725921	0.258203	0.29841
0	H	0.750081	0.46557	0.298635
0	H	0.541668	0.281009	0.29743
0	H	0.444125	0.571804	0.544629
0	H	0.433629	0.869832	0.527508
0	H	0.137799	0.562873	0.535979
0	H	0.11003	0.905818	0.869686
0	H	0.0998019	0.202065	0.867897
0	H	0.809497	0.898324	0.868359
0	H	0.778666	0.23885	0.202381
0	H	0.769772	0.53765	0.202173
0	H	0.469033	0.228269	0.201229
0	H	0.445	0.642037	0.488087
0	H	0.361741	0.800235	0.47491
0	H	0.207607	0.561985	0.480555
0	H	0.110225	0.975852	0.814397
0	H	0.0288228	0.131861	0.814161
0	H	0.879494	0.897631	0.814365
0	H	0.779961	0.309415	0.146553
0	H	0.698735	0.467749	0.146686
0	H	0.538773	0.227177	0.146068
0	H	0.571103	0.663662	0.220094
0	H	0.344743	0.89987	0.212701
0	H	0.105324	0.440223	0.215918
0	H	0.236129	0.997992	0.545799
0	H	0.00861317	0.235475	0.546019
0	H	0.774439	0.773835	0.546624
0	H	0.901845	0.329043	0.882729
0	H	0.679355	0.56981	0.882198
0	H	0.435586	0.106051	0.881914
0	H	0.489085	0.635458	0.19469
0	H	0.374678	0.84834	0.180562
0	H	0.158402	0.522067	0.187648
0	H	0.153604	0.967675	0.521319
0	H	0.0378558	0.183046	0.519647
0	H	0.827875	0.85573	0.51989
0	H	0.819813	0.300251	0.853762
0	H	0.708122	0.517085	0.853745
0	H	0.489268	0.18781	0.853144
0	H	0.545721	0.700568	0.0759501
0	H	0.308537	0.838607	0.0644389
0	H	0.167472	0.466026	0.0696785
0	H	0.208863	0.0334041	0.402138
0	H	0.972294	0.173079	0.401013
0	H	0.837067	0.799834	0.401976
0	H	0.876799	0.365791	0.737177
0	H	0.642362	0.507665	0.736881
0	H	0.497817	0.131308	0.736327
0	H	0.401186	0.307726	0.971752
0	H	0.701219	0.093742	0.972334
0	H	0.916134	0.605937	0.973081
0	H	0.0683345	0.642051	0.300599
0	H	0.366346	0.426362	0.300612
0	H	0.58618	0.940413	0.299094
0	H	0.735385	0.973799	0.633731
0	H	0.0361013	0.759969	0.634037
0	H	0.246025	0.271211	0.633387
0	H	0.410512	0.304187	0.75386
0	H	0.705705	0.107284	0.7545
0	H	0.902656	0.596809	0.755303
0	H	0.0774313	0.638211	0.0827595
0	H	0.370222	0.439838	0.0830246
0	H	0.573252	0.931224	0.0812348
0	H	0.745131	0.970166	0.416021
0	H	0.0402285	0.773814	0.416422
0	H	0.232459	0.261275	0.415789
0	H	0.380767	0.351302	0.834025
0	H	0.657407	0.0299147	0.832987
0	H	0.980284	0.626581	0.83401
0	H	0.0479572	0.685648	0.162882
0	H	0.32244	0.362381	0.162005
0	H	0.65071	0.960966	0.161621
0	H	0.714841	0.0170229	0.495257
0	H	0.992262	0.696256	0.494647
0	H	0.310207	0.291717	0.494885
0	H	0.580421	0.413409	0.858747
0	H	0.597317	0.167722	0.859392
0	H	0.841098	0.427685	0.859239
0	H	0.247474	0.746774	0.187312
0	H	0.261256	0.499278	0.187439
0	H	0.511535	0.762036	0.186696
0	H	0.914624	0.0798151	0.522852
0	H	0.931491	0.83346	0.522116
0	H	0.172032	0.0926829	0.522516
0	H	0.525894	0.342006	0.757535
0	H	0.668884	0.18486	0.758637
0	H	0.824427	0.481965	0.758253
0	H	0.19257	0.675455	0.0860159
0	H	0.333215	0.516833	0.0877334
0	H	0.49495	0.816073	0.083747
0	H	0.860368	0.00831661	0.421148
0	H	0.00310043	0.850846	0.420707
0	H	0.154795	0.146555	0.421038
0	H	0.529895	0.345524	0.978416
0	H	0.665033	0.184695	0.979669
0	H	0.824184	0.478114	0.979179
0	H	0.196519	0.679062	0.306848
0	H	0.328945	0.51688	0.308432
0	H	0.494233	0.812492	0.304716
0	H	0.863959	0.0118527	0.641973
0	H	0.999493	0.851028	0.641591
0	H	0.154641	0.142809	0.641953
0	H	0.498012	0.383402	0.485792
0	H	0.624655	0.113808	0.485169
0	H	0.895121	0.509902	0.485682
0	H	0.165796	0.7184	0.814766
0	H	0.289263	0.446657	0.815063
0	H	0.564239	0.843585	0.813133
0	H	0.830009	0.0497973	0.149354
0	H	0.961141	0.779901	0.148761
0	H	0.225569	0.175612	0.148517
0	H	0.454074	0.30296	0.412336
0	H	0.705518	0.149406	0.413355
0	H	0.859594	0.554499	0.412795
0	H	0.122745	0.63789	0.741499
0	H	0.370321	0.484426	0.743852
0	H	0.527917	0.887384	0.7394
0	H	0.789084	0.969428	0.0749605
0	H	0.0417631	0.817123	0.0748606
0	H	0.189068	0.219269	0.0753875
0	H	0.414341	0.347827	0.442596
0	H	0.658292	0.0645307	0.442357
0	H	0.944775	0.593145	0.442738
0	H	0.0821782	0.682045	0.769838
0	H	0.325283	0.399507	0.772981
0	H	0.613124	0.926838	0.76962
0	H	0.746318	0.0115637	0.101636
0	H	0.996326	0.732146	0.102964
0	H	0.274314	0.258896	0.104494
