#******************************************
#
# CIF file created by Zeo++
# Zeo++ is an open source package to
# analyze microporous materials
#
#*******************************************

_cell_length_a		20.1954(0)
_cell_length_b		23.5888(0)
_cell_length_c		9.14466(0)
_cell_angle_alpha		90(0)
_cell_angle_beta		90(0)
_cell_angle_gamma		90(0)

_symmetry_space_group_name_H-M		'P1'
_symmetry_Int_Tables_number		1
_symmetry_cell_setting		Monoclinic

loop_
_symmetry_equiv_pos_as_xyz
'+x,+y,+z'

loop_
_atom_site_label
_atom_site_type_symbol
_atom_site_fract_x
_atom_site_fract_y
_atom_site_fract_z
0	Br	0.243073	0.312474	0.589094
0	Br	0.266796	0.714651	0.0977197
0	Br	0.765222	0.820823	0.94081
0	Br	0.744265	0.205995	0.439718
0	O	0.541088	0.0761028	0.264122
0	O	0.965626	0.951504	0.757724
0	O	0.467713	0.578008	0.287206
0	O	0.0398639	0.448966	0.786725
0	O	0.381526	0.00715049	0.456918
0	O	0.124263	0.0206712	0.955645
0	O	0.618883	0.505532	0.0769039
0	O	0.886541	0.520857	0.579266
0	O	0.343084	0.892653	0.245386
0	O	0.163362	0.135726	0.745219
0	O	0.663522	0.391836	0.278485
0	O	0.843475	0.636035	0.786817
0	O	0.515903	0.824409	0.473241
0	O	0.992452	0.202401	0.977545
0	O	0.492601	0.318356	0.0606993
0	O	0.0142111	0.706938	0.556727
0	O	0.511462	0.852296	0.835903
0	O	0.98753	0.169831	0.336758
0	O	0.498794	0.344324	0.692301
0	O	0.0167017	0.675275	0.188529
0	O	0.402025	0.745933	0.705807
0	O	0.105074	0.282839	0.218893
0	O	0.598481	0.238674	0.837079
0	O	0.941778	0.784743	0.29993
0	O	0.40471	0.74205	0.952791
0	O	0.070556	0.278933	0.453273
0	O	0.615306	0.229847	0.593792
0	O	0.902314	0.794447	0.070897
0	O	0.422807	0.113594	0.968732
0	O	0.0838457	0.912953	0.470219
0	O	0.587314	0.618988	0.566451
0	O	0.922311	0.409192	0.0691309
0	N	0.486736	0.190319	0.0288168
0	N	0.0196958	0.835998	0.527275
0	N	0.524442	0.696108	0.503364
0	N	0.984128	0.33149	0.00572823
0	H	0.49586	0.233559	0.0161548
0	H	0.00768435	0.793858	0.504026
0	H	0.517175	0.739763	0.511325
0	H	0.991195	0.287862	0.0140512
0	N	0.457093	0.136013	0.308691
0	N	0.0492788	0.891639	0.805767
0	N	0.550162	0.637425	0.226207
0	N	0.956477	0.389807	0.730729
0	N	0.385275	0.038453	0.220188
0	N	0.121621	0.98961	0.718722
0	N	0.618753	0.536846	0.313706
0	N	0.888883	0.490554	0.81694
0	H	0.400744	0.0695985	0.147044
0	H	0.106426	0.958498	0.644918
0	H	0.605097	0.568221	0.387902
0	H	0.903254	0.459355	0.891009
0	N	0.446887	0.923546	0.204161
0	N	0.0595911	0.104562	0.703775
0	N	0.559264	0.420175	0.326705
0	N	0.948163	0.606895	0.827018
0	N	0.486297	0.917477	0.494241
0	N	0.016507	0.107923	0.991959
0	N	0.52133	0.411447	0.0346076
0	N	0.986273	0.613518	0.535507
0	H	0.464219	0.952278	0.446257
0	H	0.037192	0.0730424	0.941576
0	H	0.543262	0.446837	0.0806522
0	H	0.963896	0.578638	0.582536
0	N	0.409013	0.871515	0.752215
0	N	0.0907599	0.154373	0.253982
0	N	0.599953	0.362744	0.78372
0	N	0.913936	0.662326	0.276857
0	C	0.540598	0.15837	0.103963
0	C	0.965992	0.868371	0.60112
0	C	0.469219	0.664553	0.432076
0	C	0.0390453	0.363039	0.933822
0	C	0.513324	0.120613	0.230416
0	C	0.993448	0.906748	0.726076
0	C	0.495203	0.623539	0.311041
0	C	0.0123711	0.403642	0.812681
0	C	0.431414	0.0981486	0.42579
0	C	0.0741828	0.929821	0.923069
0	C	0.573121	0.597986	0.109756
0	C	0.933517	0.428877	0.613393
0	H	0.473866	0.0829852	0.49525
0	H	0.0311337	0.945296	0.990366
0	H	0.529288	0.584058	0.0427897
0	H	0.977347	0.442964	0.546562
0	C	0.397002	0.0441526	0.367848
0	C	0.109178	0.983748	0.866062
0	C	0.605624	0.542949	0.166666
0	C	0.900733	0.483905	0.669557
0	C	0.348368	0.989761	0.155452
0	C	0.15838	0.0386484	0.655208
0	C	0.656531	0.487904	0.37511
0	C	0.851238	0.539398	0.879175
0	C	0.378757	0.931765	0.204657
0	C	0.127741	0.096517	0.70479
0	C	0.627119	0.429865	0.323095
0	C	0.880257	0.597588	0.827344
0	C	0.475519	0.868286	0.251897
0	C	0.0304273	0.159367	0.753318
0	C	0.532058	0.364285	0.279761
0	C	0.975545	0.662459	0.778181
0	H	0.438498	0.833262	0.235052
0	H	0.0671385	0.194726	0.738
0	H	0.569902	0.330054	0.298456
0	H	0.93812	0.697026	0.796296
0	C	0.494389	0.867845	0.415795
0	C	0.0114532	0.158691	0.917198
0	C	0.513616	0.362435	0.115746
0	C	0.993644	0.663224	0.614098
0	C	0.508892	0.925203	0.647724
0	C	0.992908	0.0991825	0.144252
0	C	0.49911	0.41732	0.880407
0	C	0.011482	0.605794	0.384172
0	C	0.477129	0.879324	0.749413
0	C	0.0230777	0.144605	0.249224
0	C	0.531982	0.371194	0.781359
0	C	0.981438	0.651189	0.278815
0	C	0.378338	0.83151	0.857793
0	C	0.119062	0.194241	0.36333
0	C	0.631306	0.321622	0.682264
0	C	0.886213	0.703796	0.170993
0	H	0.396764	0.841376	0.971244
0	H	0.100478	0.182685	0.475572
0	H	0.613303	0.329888	0.567564
0	H	0.900858	0.690879	0.0567504
0	C	0.396401	0.769938	0.821662
0	C	0.0982756	0.255415	0.329423
0	C	0.612802	0.26039	0.721956
0	C	0.913823	0.763667	0.196547
0	C	0.424362	0.682909	0.946049
0	C	0.0545443	0.338888	0.444182
0	C	0.592731	0.171458	0.596073
0	C	0.923087	0.853468	0.0707079
0	H	0.381678	0.657464	0.912521
0	H	0.0974196	0.362534	0.403441
0	H	0.632916	0.144818	0.637098
0	H	0.883425	0.878521	0.120197
0	H	0.439303	0.674067	0.0590605
0	H	0.0432632	0.349601	0.558034
0	H	0.582123	0.163168	0.480213
0	H	0.928813	0.862965	0.954053
0	H	0.465691	0.677811	0.869414
0	H	0.0117917	0.344398	0.371881
0	H	0.548167	0.167429	0.663598
0	H	0.969847	0.858654	0.130207
0	C	0.434191	0.164903	0.957219
0	C	0.0724206	0.861704	0.45659
0	C	0.576485	0.670369	0.576312
0	C	0.932426	0.357697	0.0787742
0	C	0.389527	0.202752	0.870268
0	C	0.11766	0.824081	0.370984
0	C	0.620851	0.708601	0.662914
0	C	0.887935	0.319793	0.165442
0	C	0.32436	0.183932	0.845972
0	C	0.182539	0.843658	0.346743
0	C	0.685664	0.689724	0.690665
0	C	0.8233	0.33877	0.194632
0	H	0.30848	0.143001	0.889943
0	H	0.197485	0.885084	0.389233
0	H	0.701647	0.648379	0.649485
0	H	0.807267	0.380323	0.154901
0	C	0.280251	0.216813	0.764783
0	C	0.227422	0.810767	0.267906
0	C	0.729335	0.723177	0.771539
0	C	0.779706	0.304957	0.274751
0	H	0.229232	0.201944	0.747819
0	H	0.278274	0.826052	0.251144
0	H	0.780061	0.708168	0.791204
0	H	0.729002	0.319851	0.295205
0	C	0.30248	0.26811	0.706496
0	C	0.206233	0.758733	0.211991
0	C	0.706787	0.775052	0.825783
0	C	0.802172	0.252653	0.326408
0	C	0.366868	0.287486	0.728583
0	C	0.142249	0.738555	0.234403
0	C	0.642614	0.794377	0.800724
0	C	0.866185	0.233265	0.299803
0	H	0.384839	0.327354	0.68136
0	H	0.125332	0.697889	0.189704
0	H	0.624492	0.834675	0.845226
0	H	0.884145	0.192463	0.342126
0	C	0.41048	0.254667	0.81233
0	C	0.0977947	0.771416	0.315736
0	C	0.599556	0.761035	0.717281
0	C	0.909181	0.266989	0.217499
0	H	0.46098	0.270718	0.830892
0	H	0.0473567	0.75491	0.334733
0	H	0.549325	0.77723	0.695997
0	H	0.959227	0.250733	0.194744
0	C	0.588528	0.201135	0.172159
0	C	0.918357	0.82573	0.671009
0	C	0.423045	0.707624	0.359443
0	C	0.0848571	0.31983	0.860686
0	H	0.609686	0.229241	0.0872976
0	H	0.89799	0.796337	0.588809
0	H	0.402587	0.737294	0.441622
0	H	0.105795	0.290248	0.942454
0	H	0.630808	0.179851	0.224083
0	H	0.875711	0.846918	0.721863
0	H	0.380157	0.686736	0.308953
0	H	0.127483	0.340285	0.807874
0	H	0.565204	0.22849	0.254158
0	H	0.942257	0.799504	0.755033
0	H	0.447447	0.733322	0.275443
0	H	0.0596539	0.294001	0.777814
0	C	0.575991	0.119508	0.994789
0	C	0.930799	0.906875	0.49054
0	C	0.432146	0.629011	0.545967
0	C	0.0754582	0.399054	0.0476423
0	H	0.541534	0.0896524	0.942953
0	H	0.965277	0.937867	0.443007
0	H	0.465104	0.59892	0.601413
0	H	0.0417178	0.428821	0.102203
0	H	0.614393	0.0942381	0.0494076
0	H	0.890877	0.931122	0.542969
0	H	0.392534	0.604134	0.494311
0	H	0.114715	0.424485	0.996764
0	H	0.599985	0.144837	0.908696
0	H	0.909449	0.881838	0.401014
0	H	0.409185	0.656684	0.628758
0	H	0.0984646	0.371907	0.131519
0	C	0.421424	0.191401	0.307808
0	C	0.0855786	0.8365	0.806122
0	C	0.585878	0.692753	0.218878
0	C	0.920799	0.334424	0.724108
0	H	0.384238	0.191697	0.218185
0	H	0.123476	0.836704	0.717932
0	H	0.623203	0.694904	0.308026
0	H	0.883318	0.332557	0.812969
0	H	0.456291	0.227047	0.288876
0	H	0.0514178	0.80055	0.785124
0	H	0.550902	0.728651	0.233412
0	H	0.955526	0.298401	0.739459
0	C	0.387804	0.195102	0.458164
0	C	0.117904	0.832978	0.957931
0	C	0.619161	0.6936	0.0678536
0	C	0.88769	0.333046	0.572878
0	H	0.417869	0.221036	0.534349
0	H	0.0876711	0.806792	0.0330742
0	H	0.58975	0.718921	0.989267
0	H	0.916968	0.307179	0.494984
0	H	0.339013	0.216107	0.451346
0	H	0.166854	0.812215	0.953287
0	H	0.668406	0.713868	0.0721171
0	H	0.838411	0.312798	0.577209
0	C	0.381757	0.133955	0.514776
0	C	0.122989	0.894158	0.0147532
0	C	0.623739	0.631577	0.0175136
0	C	0.883322	0.394898	0.52101
0	H	0.330532	0.118028	0.502293
0	H	0.174219	0.910389	0.00498157
0	H	0.674501	0.614962	0.0327597
0	H	0.832448	0.411577	0.534484
0	H	0.392852	0.13127	0.633119
0	H	0.110649	0.896749	0.132405
0	H	0.612998	0.627212	0.899468
0	H	0.894614	0.398811	0.403003
0	C	0.276324	0.991835	0.207732
0	C	0.230375	0.0367602	0.707803
0	C	0.728526	0.491348	0.322446
0	C	0.779202	0.535856	0.826998
0	H	0.273624	0.993948	0.327803
0	H	0.233011	0.0352919	0.827922
0	H	0.731078	0.494256	0.202513
0	H	0.776517	0.533277	0.70691
0	H	0.249238	0.95354	0.175129
0	H	0.257519	0.0748386	0.673967
0	H	0.756364	0.453165	0.353211
0	H	0.751265	0.573876	0.858534
0	H	0.249959	0.0283785	0.162197
0	H	0.256789	0.999935	0.663809
0	H	0.754232	0.527971	0.369426
0	H	0.753711	0.498997	0.873388
0	C	0.352713	0.993605	0.98886
0	C	0.154074	0.0351576	0.488483
0	C	0.652598	0.490286	0.542137
0	C	0.855928	0.536733	0.0460025
0	H	0.327356	0.957946	0.935986
0	H	0.181253	0.06994	0.436166
0	H	0.684774	0.458322	0.59273
0	H	0.822653	0.567521	0.0978339
0	H	0.404327	0.994081	0.949235
0	H	0.102487	0.0367328	0.448812
0	H	0.601808	0.483189	0.582848
0	H	0.906517	0.545307	0.0857746
0	H	0.330118	0.032875	0.947196
0	H	0.174713	0.995108	0.44668
0	H	0.6677	0.532059	0.584822
0	H	0.842778	0.494416	0.0883551
0	C	0.497988	0.959186	0.129985
0	C	0.0088883	0.0690478	0.627774
0	C	0.507727	0.454788	0.402771
0	C	0.000376352	0.571793	0.8994
0	H	0.512491	0.995277	0.202667
0	H	0.995356	0.0318179	0.69735
0	H	0.493154	0.491671	0.333166
0	H	0.0146174	0.535492	0.827226
0	H	0.47771	0.977975	0.0273691
0	H	0.0293988	0.0519181	0.523418
0	H	0.527763	0.472435	0.507204
0	H	0.981141	0.553248	0.00331742
0	C	0.557008	0.919629	0.0997983
0	C	0.949057	0.107989	0.60153
0	C	0.449095	0.4146	0.430402
0	C	0.0590297	0.611949	0.926805
0	H	0.602377	0.935828	0.152467
0	H	0.904435	0.0911112	0.655734
0	H	0.403946	0.430246	0.375812
0	H	0.104384	0.596153	0.873305
0	H	0.567558	0.916868	0.981036
0	H	0.937053	0.110877	0.483421
0	H	0.437455	0.411747	0.548609
0	H	0.0705544	0.61504	0.0451524
0	C	0.538441	0.860607	0.158816
0	C	0.967503	0.167063	0.660412
0	C	0.469092	0.355812	0.372247
0	C	0.039215	0.670768	0.868307
0	H	0.579468	0.841685	0.2216
0	H	0.926339	0.185865	0.722956
0	H	0.428594	0.336188	0.309112
0	H	0.079549	0.689967	0.803632
0	H	0.528128	0.831344	0.0663462
0	H	0.977662	0.196397	0.567807
0	H	0.479715	0.326758	0.465061
0	H	0.0297117	0.700078	0.961054
0	C	0.487566	0.983959	0.701698
0	C	0.0148724	0.0404608	0.197063
0	C	0.519598	0.475764	0.822876
0	C	0.991493	0.546792	0.329455
0	H	0.518201	0.0173894	0.652887
0	H	0.985936	0.0067646	0.144994
0	H	0.487667	0.509252	0.867296
0	H	0.0227746	0.513794	0.378267
0	H	0.492617	0.987896	0.820904
0	H	0.00835529	0.0355962	0.315543
0	H	0.515915	0.478206	0.702906
0	H	0.996743	0.542907	0.210215
0	H	0.435591	0.993711	0.673299
0	H	0.0674896	0.0319678	0.172064
0	H	0.570863	0.486929	0.853875
0	H	0.939789	0.536049	0.357545
0	C	0.584419	0.918914	0.652574
0	C	0.917377	0.105148	0.146991
0	C	0.423794	0.409662	0.874572
0	C	0.0869103	0.612962	0.384783
0	H	0.599667	0.876428	0.614885
0	H	0.902178	0.147967	0.111731
0	H	0.409337	0.367684	0.91726
0	H	0.100969	0.655625	0.423633
0	H	0.603837	0.924354	0.763636
0	H	0.897166	0.0987966	0.25709
0	H	0.404868	0.412622	0.762376
0	H	0.108084	0.608106	0.274956
0	H	0.60876	0.94999	0.581369
0	H	0.893451	0.0746478	0.073552
0	H	0.398244	0.441476	0.941275
0	H	0.110917	0.582028	0.456978
0	C	0.358856	0.894058	0.647284
0	C	0.142519	0.133197	0.150963
0	C	0.649372	0.386969	0.887748
0	C	0.862336	0.641904	0.381319
0	H	0.36655	0.940432	0.63028
0	H	0.136279	0.0867363	0.132568
0	H	0.641276	0.43345	0.900385
0	H	0.867451	0.59537	0.399222
0	H	0.364368	0.873097	0.538804
0	H	0.137515	0.154339	0.042615
0	H	0.643558	0.367504	0.997995
0	H	0.868426	0.662871	0.489553
0	C	0.291017	0.881014	0.716096
0	C	0.209192	0.147329	0.223527
0	C	0.717584	0.373369	0.821547
0	C	0.795742	0.657387	0.310281
0	H	0.25721	0.862254	0.634164
0	H	0.243597	0.166443	0.143495
0	H	0.751127	0.355811	0.905677
0	H	0.760519	0.673738	0.392553
0	H	0.266754	0.920435	0.753871
0	H	0.233874	0.108336	0.26286
0	H	0.741801	0.412318	0.78096
0	H	0.771969	0.619448	0.262519
0	C	0.302821	0.839914	0.844275
0	C	0.194993	0.188206	0.351108
0	C	0.706613	0.330735	0.6964
0	C	0.810379	0.701782	0.191159
0	H	0.276998	0.799154	0.825761
0	H	0.219335	0.229624	0.332211
0	H	0.732915	0.290444	0.717743
0	H	0.790061	0.743702	0.221301
0	H	0.282702	0.856821	0.948084
0	H	0.215448	0.171886	0.455205
0	H	0.726748	0.346837	0.591773
0	H	0.78646	0.69033	0.0862848
