#******************************************
#
# CIF file created by Zeo++
# Zeo++ is an open source package to
# analyze microporous materials
#
#*******************************************

_cell_length_a		24.2032(0)
_cell_length_b		4.55154(0)
_cell_length_c		23.8787(0)
_cell_angle_alpha		90(0)
_cell_angle_beta		96.8794(0)
_cell_angle_gamma		90(0)

_symmetry_space_group_name_H-M		'P1'
_symmetry_Int_Tables_number		1
_symmetry_cell_setting		Monoclinic

loop_
_symmetry_equiv_pos_as_xyz
'+x,+y,+z'

loop_
_atom_site_label
_atom_site_type_symbol
_atom_site_fract_x
_atom_site_fract_y
_atom_site_fract_z
0	S	0.997979	0.863917	0.910348
0	S	0.328348	0.354238	0.675148
0	S	0.84043	0.230359	0.183065
0	S	0.510006	0.737064	0.417521
0	O	0.158623	0.99626	0.949981
0	O	0.169867	0.511457	0.627876
0	O	0.679971	0.0950171	0.14273
0	O	0.668751	0.582722	0.463877
0	O	0.881807	0.244927	0.986682
0	O	0.450972	0.737769	0.609373
0	O	0.957266	0.852955	0.107101
0	O	0.388124	0.347602	0.48345
0	N	0.072575	0.826816	0.902964
0	N	0.252896	0.32576	0.678254
0	N	0.765736	0.265982	0.190108
0	N	0.585366	0.767429	0.414028
0	N	0.0756952	0.0953594	0.986766
0	N	0.255756	0.601806	0.596147
0	N	0.763169	0.998354	0.106262
0	N	0.58316	0.488942	0.49595
0	N	0.978819	0.20272	0.997003
0	N	0.354164	0.694779	0.591122
0	N	0.860215	0.89319	0.0964016
0	N	0.484916	0.393142	0.50138
0	N	0.926467	0.933404	0.926686
0	N	0.401281	0.416943	0.663493
0	N	0.912098	0.162415	0.167046
0	N	0.437229	0.672514	0.429575
0	C	0.108171	0.97396	0.943587
0	C	0.220139	0.481264	0.636649
0	C	0.730405	0.118502	0.149334
0	C	0.618439	0.611665	0.45538
0	C	0.0195938	0.0699543	0.972224
0	C	0.31115	0.566731	0.613203
0	C	0.819212	0.0248665	0.121061
0	C	0.527683	0.523095	0.479209
0	C	0.922328	0.135384	0.969114
0	C	0.408905	0.625315	0.622864
0	C	0.916578	0.961189	0.124546
0	C	0.429997	0.462136	0.469945
0	C	0.0960662	0.314657	0.0310494
0	C	0.238771	0.822522	0.551089
0	C	0.743111	0.778987	0.0618787
0	C	0.600504	0.267588	0.540784
0	C	0.0526209	0.34795	0.0724521
0	C	0.284861	0.852685	0.512527
0	C	0.786772	0.746773	0.0206872
0	C	0.554686	0.235577	0.579623
0	C	0.993993	0.416558	0.0435105
0	C	0.342645	0.911572	0.544444
0	C	0.845342	0.679184	0.0498861
0	C	0.496769	0.176429	0.548023
0	C	0.0888719	0.81216	0.84513
0	C	0.232993	0.30348	0.734413
0	C	0.749107	0.280867	0.2478
0	C	0.60495	0.790136	0.357725
0	C	0.065569	0.0613744	0.808501
0	C	0.253208	0.551429	0.773028
0	C	0.772245	0.0317797	0.284553
0	C	0.584621	0.542191	0.319168
0	C	0.878519	0.906018	0.882286
0	C	0.444082	0.393141	0.712976
0	C	0.959763	0.189282	0.211796
0	C	0.394075	0.697594	0.380417
0	C	0.877111	0.151674	0.840209
0	C	0.438813	0.637149	0.754225
0	C	0.960806	0.943376	0.253774
0	C	0.398881	0.453917	0.338991
0	S	0.345	0.274734	0.180962
0	S	0.0171931	0.672048	0.415919
0	S	0.493756	0.818176	0.91214
0	S	0.821612	0.420987	0.677236
0	O	0.455872	0.82316	0.108776
0	O	0.888938	0.384182	0.486129
0	O	0.383629	0.273542	0.984668
0	O	0.950594	0.708052	0.608068
0	O	0.183221	0.22987	0.13649
0	O	0.17136	0.409772	0.459081
0	O	0.655685	0.860446	0.955752
0	O	0.667586	0.681606	0.632459
0	N	0.415303	0.166409	0.166288
0	N	0.943718	0.658922	0.429145
0	N	0.423636	0.928357	0.927117
0	N	0.895273	0.434446	0.664713
0	N	0.359861	0.910824	0.0966311
0	N	0.986063	0.367456	0.502365
0	N	0.479571	0.183631	0.996444
0	N	0.8535	0.725337	0.591155
0	N	0.265007	0.0756111	0.103222
0	N	0.0850218	0.379586	0.492995
0	N	0.574217	0.0168511	0.989403
0	N	0.754313	0.711686	0.599412
0	N	0.27096	0.351269	0.186383
0	N	0.0925231	0.652449	0.411551
0	N	0.567673	0.7402	0.906346
0	N	0.746154	0.439989	0.680827
0	C	0.417058	0.955314	0.12522
0	C	0.932916	0.465987	0.471468
0	C	0.42224	0.140044	0.968124
0	C	0.906456	0.626793	0.622443
0	C	0.321113	0.0698817	0.119564
0	C	0.0310044	0.456731	0.477987
0	C	0.518067	0.0234664	0.973354
0	C	0.808293	0.635523	0.615027
0	C	0.233842	0.221414	0.144642
0	C	0.122287	0.474882	0.451627
0	C	0.605063	0.869757	0.947905
0	C	0.716659	0.616811	0.640434
0	C	0.342357	0.709408	0.0487683
0	C	0.99352	0.144448	0.548459
0	C	0.497419	0.384609	0.0442923
0	C	0.846398	0.948446	0.545081
0	C	0.286521	0.813545	0.0179222
0	C	0.0532397	0.157917	0.578216
0	C	0.553315	0.279467	0.0748488
0	C	0.786997	0.933082	0.514576
0	C	0.241995	0.871322	0.0573399
0	C	0.0978604	0.151912	0.537668
0	C	0.597568	0.220953	0.03516
0	C	0.741795	0.938352	0.554481
0	C	0.463824	0.197267	0.209838
0	C	0.899659	0.692183	0.380925
0	C	0.374823	0.897066	0.883941
0	C	0.938933	0.401579	0.713303
0	C	0.465985	0.954246	0.252529
0	C	0.901262	0.447072	0.339106
0	C	0.372205	0.139933	0.841161
0	C	0.936834	0.646743	0.755025
0	C	0.25265	0.373177	0.243348
0	C	0.111832	0.672339	0.355139
0	C	0.585554	0.718071	0.849199
0	C	0.726254	0.420409	0.736976
0	C	0.273074	0.12242	0.281082
0	C	0.089648	0.427064	0.31683
0	C	0.564854	0.968641	0.811542
0	C	0.748078	0.665682	0.775473
0	H	0.103916	0.52737	0.0101773
0	H	0.230389	0.0363206	0.571337
0	H	0.735315	0.565959	0.0826663
0	H	0.608889	0.0544073	0.520322
0	H	0.136721	0.236835	0.0535819
0	H	0.199247	0.745459	0.526524
0	H	0.702475	0.856081	0.03921
0	H	0.640094	0.3449	0.565191
0	H	0.0660958	0.523098	0.10351
0	H	0.273741	0.0327453	0.481751
0	H	0.773576	0.571238	0.989576
0	H	0.566107	0.055018	0.610205
0	H	0.0514202	0.146799	0.0987449
0	H	0.286185	0.653066	0.485841
0	H	0.787936	0.94799	0.994421
0	H	0.553434	0.434601	0.606487
0	H	0.962605	0.405314	0.0740925
0	H	0.375742	0.895027	0.515769
0	H	0.876872	0.690989	0.019461
0	H	0.463871	0.192796	0.576925
0	H	0.991393	0.644185	0.025626
0	H	0.345842	0.138782	0.562454
0	H	0.848007	0.451581	0.0677888
0	H	0.4935	0.949203	0.530038
0	H	0.135298	0.806705	0.847616
0	H	0.186497	0.294109	0.728887
0	H	0.702667	0.286242	0.245073
0	H	0.651439	0.800009	0.362993
0	H	0.075359	0.57959	0.828102
0	H	0.246222	0.0709208	0.751567
0	H	0.762542	0.51345	0.264877
0	H	0.59159	0.0227296	0.340649
0	H	0.0198677	0.0613001	0.801811
0	H	0.298549	0.549439	0.78438
0	H	0.817933	0.032166	0.291585
0	H	0.539237	0.543774	0.308096
0	H	0.0803487	0.0548821	0.766844
0	H	0.23408	0.544794	0.812441
0	H	0.757126	0.0379969	0.326057
0	H	0.603474	0.549276	0.279606
0	H	0.0767113	0.291035	0.82626
0	H	0.244072	0.781334	0.754513
0	H	0.761273	0.802121	0.266707
0	H	0.593909	0.312262	0.337606
0	H	0.881089	0.671307	0.863212
0	H	0.439631	0.157602	0.731198
0	H	0.957076	0.423884	0.230866
0	H	0.39845	0.933256	0.362215
0	H	0.839209	0.901192	0.902581
0	H	0.486219	0.39272	0.69835
0	H	0.999264	0.194117	0.191821
0	H	0.352101	0.698312	0.395429
0	H	0.839998	0.142506	0.808968
0	H	0.471035	0.624498	0.79069
0	H	0.997627	0.952535	0.285383
0	H	0.366348	0.466898	0.302804
0	H	0.913784	0.151502	0.817185
0	H	0.398161	0.638072	0.770364
0	H	0.923838	0.94308	0.276374
0	H	0.439309	0.453146	0.322409
0	H	0.877203	0.381573	0.860001
0	H	0.442207	0.867699	0.735327
0	H	0.960933	0.713589	0.23397
0	H	0.395682	0.223254	0.357901
0	H	0.37543	0.701739	0.0198698
0	H	0.962826	0.189359	0.5787
0	H	0.464516	0.392934	0.0733737
0	H	0.877592	0.904994	0.515305
0	H	0.339534	0.480556	0.065333
0	H	0.983447	0.922145	0.530009
0	H	0.500286	0.613393	0.0277354
0	H	0.855956	0.170971	0.563692
0	H	0.270461	0.648576	0.98573
0	H	0.0599886	0.971422	0.608346
0	H	0.569658	0.443992	0.107009
0	H	0.780453	0.118967	0.484317
0	H	0.293443	0.0145112	0.993055
0	H	0.0590158	0.355662	0.605647
0	H	0.546383	0.0786751	0.099747
0	H	0.781822	0.734874	0.487233
0	H	0.228652	0.664653	0.0768808
0	H	0.100005	0.932453	0.517203
0	H	0.610911	0.427308	0.0155138
0	H	0.739155	0.157979	0.574758
0	H	0.204019	0.972832	0.0335597
0	H	0.139713	0.201994	0.560892
0	H	0.635576	0.118786	0.0587465
0	H	0.700221	0.886871	0.530777
0	H	0.502669	0.20056	0.188749
0	H	0.858244	0.700937	0.397212
0	H	0.336187	0.893624	0.905353
0	H	0.980547	0.39313	0.697441
0	H	0.461589	0.433061	0.228517
0	H	0.904748	0.926427	0.362587
0	H	0.376936	0.661389	0.865233
0	H	0.93369	0.167206	0.731567
0	H	0.503599	0.966834	0.283126
0	H	0.866312	0.458985	0.305333
0	H	0.334292	0.127447	0.810979
0	H	0.971435	0.634879	0.789176
0	H	0.465716	0.723374	0.233087
0	H	0.899766	0.217104	0.358549
0	H	0.372749	0.370786	0.860622
0	H	0.938538	0.876676	0.735603
0	H	0.429876	0.955444	0.27633
0	H	0.939928	0.44607	0.319237
0	H	0.407983	0.138369	0.816898
0	H	0.89788	0.647759	0.774395
0	H	0.206175	0.386193	0.239137
0	H	0.158341	0.674178	0.360185
0	H	0.63201	0.704915	0.853048
0	H	0.679737	0.418694	0.731458
0	H	0.266684	0.604449	0.260505
0	H	0.0994715	0.906672	0.338267
0	H	0.571392	0.486759	0.832157
0	H	0.738401	0.18592	0.753948
0	H	0.263266	0.8935	0.262477
0	H	0.0993416	0.196212	0.334795
0	H	0.574774	0.197654	0.830057
0	H	0.738596	0.896528	0.7574
0	H	0.318573	0.121991	0.291302
0	H	0.0441049	0.432398	0.307616
0	H	0.519318	0.969089	0.801665
0	H	0.793573	0.66012	0.785204
0	H	0.255091	0.128633	0.321134
0	H	0.106878	0.433731	0.276398
0	H	0.582532	0.962209	0.771314
0	H	0.730389	0.659193	0.815662
