#******************************************
#
# CIF file created by Zeo++
# Zeo++ is an open source package to
# analyze microporous materials
#
#*******************************************

_cell_length_a		13.1284(0)
_cell_length_b		19.185(0)
_cell_length_c		23.3942(0)
_cell_angle_alpha		90(0)
_cell_angle_beta		98.7276(0)
_cell_angle_gamma		90(0)

_symmetry_space_group_name_H-M		'P1'
_symmetry_Int_Tables_number		1
_symmetry_cell_setting		Monoclinic

loop_
_symmetry_equiv_pos_as_xyz
'+x,+y,+z'

loop_
_atom_site_label
_atom_site_type_symbol
_atom_site_fract_x
_atom_site_fract_y
_atom_site_fract_z
0	H	0.0283798	0.183769	0.791275
0	H	0.584727	0.699963	0.701591
0	H	0.0657158	0.780965	0.207469
0	H	0.511735	0.291613	0.297658
0	H	0.120425	0.364818	0.785323
0	H	0.47877	0.865637	0.719357
0	H	0.966767	0.611641	0.218722
0	H	0.607825	0.115131	0.284572
0	H	0.228544	0.274343	0.744494
0	H	0.368852	0.773461	0.759301
0	H	0.858559	0.704083	0.257446
0	H	0.71662	0.205934	0.243394
0	C	0.0614235	0.180312	0.980456
0	C	0.52589	0.679241	0.518429
0	C	0.0238086	0.79813	0.0205883
0	C	0.560441	0.300532	0.483767
0	C	0.109468	0.0609428	0.955713
0	C	0.480159	0.560319	0.545591
0	C	0.975635	0.917433	0.0455402
0	C	0.606468	0.419601	0.457178
0	C	0.331256	0.309069	0.871669
0	C	0.265909	0.807709	0.632053
0	C	0.755867	0.669356	0.130408
0	C	0.8209	0.171753	0.370379
0	C	0.369125	0.138941	0.815578
0	C	0.226164	0.637032	0.68864
0	C	0.717126	0.839464	0.186544
0	C	0.85979	0.34244	0.314088
0	C	0.348881	0.0869883	0.855132
0	C	0.246525	0.585086	0.649137
0	C	0.737096	0.891403	0.14691
0	C	0.839495	0.394283	0.353692
0	C	0.118791	0.00503858	0.911551
0	C	0.475189	0.504991	0.590809
0	C	0.966805	0.97314	0.0899476
0	C	0.611579	0.475111	0.41213
0	H	0.109285	0.952617	0.931024
0	H	0.486105	0.452462	0.571901
0	H	0.976678	0.0256206	0.0706738
0	H	0.601444	0.527609	0.431287
0	H	0.0551362	0.00974436	0.874214
0	H	0.539273	0.511519	0.62756
0	H	0.0303154	0.967963	0.127231
0	H	0.547053	0.469023	0.375552
0	C	0.274193	0.279468	0.911908
0	C	0.320675	0.778607	0.590556
0	C	0.812039	0.699122	0.0898411
0	C	0.765866	0.200887	0.411745
0	C	0.0641661	0.126197	0.940113
0	C	0.526984	0.625515	0.559443
0	C	0.0204522	0.852001	0.0610459
0	C	0.559652	0.354476	0.442982
0	C	0.437297	0.297133	0.872872
0	C	0.160436	0.79525	0.632583
0	C	0.649963	0.681173	0.12984
0	C	0.926503	0.184058	0.370151
0	C	0.025028	0.252569	0.961813
0	C	0.564406	0.751515	0.535519
0	C	0.0603563	0.725819	0.0389472
0	C	0.521871	0.228362	0.466375
0	H	0.973098	0.251054	0.919511
0	H	0.619498	0.750361	0.576666
0	H	0.112978	0.727118	0.0809938
0	H	0.467219	0.229744	0.425059
0	H	0.978553	0.274578	0.993652
0	H	0.607916	0.772841	0.502012
0	H	0.10611	0.703821	0.00674864
0	H	0.477847	0.206962	0.499619
0	C	0.488868	0.256897	0.918215
0	C	0.106947	0.755207	0.587706
0	C	0.597513	0.721255	0.0846725
0	C	0.979808	0.223946	0.415203
0	H	0.571206	0.246604	0.920354
0	H	0.02496	0.744696	0.58687
0	H	0.51522	0.731352	0.0829622
0	H	0.0618889	0.234336	0.416259
0	C	0.139536	0.101456	0.0543823
0	C	0.439708	0.600166	0.447071
0	C	0.946057	0.877266	0.946803
0	C	0.64636	0.379222	0.555559
0	C	0.469549	0.159501	0.809192
0	C	0.125666	0.657179	0.695245
0	C	0.616787	0.818935	0.193176
0	C	0.960255	0.322221	0.307522
0	C	0.239061	0.943874	0.858171
0	C	0.355773	0.441527	0.643374
0	C	0.846887	0.0344469	0.143539
0	C	0.730672	0.538087	0.35905
0	H	0.312445	0.950793	0.84
0	H	0.284874	0.448503	0.663894
0	H	0.773999	0.0273956	0.162167
0	H	0.801512	0.53096	0.338508
0	H	0.177528	0.937864	0.820199
0	H	0.419731	0.432626	0.679623
0	H	0.908999	0.0405861	0.181209
0	H	0.666669	0.546935	0.322816
0	C	0.148079	0.0489806	0.0140563
0	C	0.435162	0.548089	0.488264
0	C	0.937362	0.929636	0.987198
0	C	0.651208	0.431535	0.514585
0	H	0.185456	0.999479	0.0272693
0	H	0.396014	0.498734	0.476669
0	H	0.900156	0.979205	0.974038
0	H	0.690362	0.480818	0.526446
0	C	0.32719	0.239063	0.956683
0	C	0.265934	0.738168	0.546385
0	C	0.758246	0.739443	0.0452702
0	C	0.820419	0.241224	0.456063
0	H	0.285333	0.216138	0.98909
0	H	0.306077	0.715509	0.513134
0	H	0.799407	0.762468	0.012611
0	H	0.780011	0.263956	0.489176
0	C	0.532409	0.0724508	0.879919
0	C	0.0629903	0.570629	0.624079
0	C	0.553506	0.905897	0.122452
0	C	0.0230258	0.408452	0.378966
0	C	0.238138	0.0724519	0.860779
0	C	0.357319	0.570228	0.643877
0	C	0.847623	0.905872	0.140772
0	C	0.728668	0.409392	0.358708
0	H	0.21069	0.117923	0.884461
0	H	0.386602	0.616356	0.621796
0	H	0.874551	0.860391	0.116887
0	H	0.699062	0.363382	0.380785
0	H	0.189927	0.0731178	0.817025
0	H	0.404594	0.568828	0.687955
0	H	0.896606	0.905063	0.184352
0	H	0.681697	0.410801	0.314608
0	C	0.552717	0.124204	0.841424
0	C	0.0425294	0.622188	0.662719
0	C	0.53347	0.854102	0.160985
0	C	0.0434408	0.357069	0.340179
0	H	0.631545	0.138015	0.836175
0	H	0.963657	0.635909	0.667865
0	H	0.454753	0.840214	0.16626
0	H	0.122348	0.343295	0.334993
0	C	0.0989727	0.167028	0.0387943
0	C	0.482223	0.665636	0.461013
0	C	0.986637	0.811669	0.962232
0	C	0.603862	0.313837	0.541286
0	H	0.0965937	0.208051	0.0709949
0	H	0.481111	0.706489	0.428382
0	H	0.989233	0.770801	0.929939
0	H	0.604748	0.272804	0.573757
0	C	0.926812	0.109418	0.862499
0	C	0.673303	0.614294	0.63285
0	C	0.15982	0.86426	0.137959
0	C	0.413866	0.366539	0.369372
0	H	0.870647	0.128262	0.889812
0	H	0.724293	0.639612	0.605477
0	H	0.213475	0.840282	0.111438
0	H	0.362841	0.341889	0.397097
0	H	0.934646	0.0518203	0.866397
0	H	0.673868	0.557034	0.626165
0	H	0.159007	0.92171	0.13203
0	H	0.414045	0.423885	0.375614
0	C	0.158616	0.287541	0.903578
0	C	0.436014	0.78735	0.596853
0	C	0.927598	0.691208	0.0977545
0	C	0.650498	0.192276	0.405277
0	H	0.133868	0.331487	0.873478
0	H	0.461742	0.831627	0.626376
0	H	0.952894	0.647499	0.127997
0	H	0.62478	0.14794	0.375816
0	H	0.125042	0.239596	0.880551
0	H	0.471213	0.739648	0.61956
0	H	0.961119	0.739397	0.120448
0	H	0.615357	0.239903	0.382439
0	C	0.24847	0.878944	0.895142
0	C	0.3402	0.378803	0.603977
0	C	0.836612	0.0993395	0.106527
0	C	0.746386	0.60091	0.398339
0	C	0.623948	0.304546	0.763402
0	C	0.976853	0.804299	0.743493
0	C	0.46463	0.672856	0.239875
0	C	0.111093	0.176248	0.259715
0	H	0.579785	0.330303	0.72467
0	H	0.0231152	0.830286	0.781627
0	H	0.509551	0.646931	0.278293
0	H	0.0658252	0.150306	0.221283
0	H	0.668226	0.261157	0.74675
0	H	0.932643	0.761822	0.761373
0	H	0.420372	0.715864	0.257054
0	H	0.155251	0.219176	0.242384
0	C	0.892273	0.129654	0.799491
0	C	0.70787	0.63127	0.696621
0	C	0.192417	0.846444	0.201652
0	C	0.378353	0.348798	0.305848
0	C	0.493326	0.326992	0.826806
0	C	0.107028	0.824803	0.679811
0	C	0.59516	0.651267	0.176385
0	C	0.980259	0.154679	0.322981
0	H	0.437614	0.353272	0.792855
0	H	0.164719	0.849196	0.713888
0	H	0.651846	0.625845	0.21038
0	H	0.922866	0.130112	0.288859
0	H	0.5478	0.368024	0.846997
0	H	0.0541231	0.867303	0.660739
0	H	0.541439	0.609549	0.156715
0	H	0.0334874	0.112367	0.342075
0	C	0.314801	0.877516	0.948139
0	C	0.273281	0.382	0.551245
0	C	0.76963	0.100565	0.0537644
0	C	0.813435	0.59783	0.451034
0	H	0.355863	0.924784	0.964275
0	H	0.236253	0.43134	0.537007
0	H	0.728282	0.0532741	0.0379836
0	H	0.850486	0.54851	0.465342
0	C	0.433194	0.229317	0.959255
0	C	0.160361	0.728086	0.545482
0	C	0.652284	0.748898	0.0432468
0	C	0.926097	0.251125	0.457274
0	C	0.699798	0.354837	0.796289
0	C	0.901182	0.854476	0.710342
0	C	0.388717	0.622552	0.207032
0	C	0.18673	0.12617	0.293012
0	C	0.432802	0.0542575	0.888496
0	C	0.162669	0.55235	0.61572
0	C	0.65299	0.92415	0.11372
0	C	0.923347	0.42674	0.387339
0	H	0.420104	0.0156512	0.92111
0	H	0.175409	0.513655	0.583166
0	H	0.66548	0.962785	0.0810767
0	H	0.910584	0.465249	0.42003
0	C	0.982637	0.402614	0.0425229
0	C	0.60126	0.897982	0.451405
0	C	0.10268	0.57574	0.958728
0	C	0.484703	0.0815174	0.550459
0	H	0.928517	0.418998	0.0049809
0	H	0.661188	0.910911	0.487281
0	H	0.157068	0.559638	0.996239
0	H	0.425309	0.068196	0.514423
0	C	0.0796519	0.376097	0.0356687
0	C	0.504078	0.875514	0.461916
0	C	0.00557092	0.602035	0.965654
0	C	0.581833	0.104476	0.540254
0	C	0.148794	0.355305	0.084394
0	C	0.427547	0.858933	0.415281
0	C	0.936071	0.622412	0.916945
0	C	0.657708	0.121545	0.58709
0	H	0.223648	0.334018	0.0787029
0	H	0.352537	0.840754	0.423725
0	H	0.86109	0.643459	0.922678
0	H	0.732662	0.140108	0.578883
0	C	0.193501	0.818738	0.875354
0	C	0.389428	0.315774	0.621568
0	C	0.891591	0.159674	0.125995
0	C	0.697083	0.663886	0.380679
0	H	0.140256	0.819626	0.834743
0	H	0.442095	0.312798	0.66215
0	H	0.944945	0.159069	0.166532
0	H	0.64426	0.66674	0.340142
0	C	0.10903	0.369801	0.975896
0	C	0.482343	0.869359	0.523337
0	C	0.976432	0.608566	0.0254662
0	C	0.604072	0.110533	0.478927
0	H	0.0533707	0.398336	0.943512
0	H	0.542347	0.89686	0.553897
0	H	0.0322	0.580158	0.057874
0	H	0.54436	0.0828751	0.448292
0	H	0.185553	0.395146	0.975497
0	H	0.407807	0.895873	0.526865
0	H	0.899929	0.583255	0.0260116
0	H	0.678769	0.0841039	0.475637
0	C	0.185976	0.19003	0.689272
0	C	0.416809	0.688076	0.81231
0	C	0.903858	0.789029	0.311554
0	C	0.671433	0.291041	0.189495
0	C	0.487537	0.218012	0.768886
0	C	0.108453	0.71488	0.736443
0	C	0.599213	0.760618	0.233762
0	C	0.977707	0.264574	0.266334
0	H	0.525623	0.196058	0.733333
0	H	0.0688478	0.692466	0.771216
0	H	0.560645	0.782685	0.269083
0	H	0.0169377	0.28709	0.231448
0	H	0.412241	0.239838	0.747852
0	H	0.184164	0.73519	0.758383
0	H	0.674745	0.739408	0.255067
0	H	0.90217	0.24387	0.244541
0	C	0.76302	0.333778	0.847151
0	C	0.83721	0.832584	0.659974
0	C	0.325469	0.643586	0.156168
0	C	0.250448	0.148099	0.343458
0	H	0.754237	0.281521	0.864045
0	H	0.845063	0.779764	0.643985
0	H	0.334389	0.695787	0.139192
0	H	0.242652	0.200969	0.359344
0	C	0.207367	0.757133	0.907513
0	C	0.369629	0.256155	0.587357
0	C	0.877532	0.221065	0.0935597
0	C	0.716949	0.723594	0.414782
0	H	0.165837	0.710001	0.891673
0	H	0.406843	0.206973	0.601598
0	H	0.919225	0.268252	0.109102
0	H	0.679655	0.772732	0.400475
0	C	0.243935	0.137455	0.730847
0	C	0.355402	0.635959	0.771728
0	C	0.846509	0.84146	0.269559
0	C	0.734354	0.343034	0.229451
0	H	0.191716	0.0961449	0.742446
0	H	0.406102	0.594811	0.758149
0	H	0.900126	0.880676	0.255925
0	H	0.685894	0.386556	0.241042
0	H	0.306817	0.112311	0.711195
0	H	0.294788	0.61057	0.793099
0	H	0.786313	0.869203	0.289622
0	H	0.797595	0.36517	0.208221
0	C	0.955196	0.407933	0.0977544
0	C	0.621302	0.903705	0.394635
0	C	0.129792	0.570189	0.903433
0	C	0.464003	0.0758399	0.6071
0	H	0.87917	0.427177	0.103284
0	H	0.697117	0.920143	0.386161
0	H	0.205803	0.551001	0.897834
0	H	0.388171	0.05908	0.615302
0	C	0.893107	0.267208	0.710659
0	C	0.709756	0.772236	0.791306
0	C	0.19563	0.704612	0.29214
0	C	0.378663	0.212096	0.213024
0	H	0.831451	0.27638	0.673132
0	H	0.768504	0.778484	0.830669
0	H	0.256482	0.696349	0.330225
0	H	0.317525	0.204625	0.174942
0	H	0.857799	0.278564	0.750105
0	H	0.748246	0.788191	0.75401
0	H	0.231368	0.690856	0.253316
0	H	0.342711	0.19841	0.251793
0	C	0.286122	0.423904	0.839576
0	C	0.312517	0.922565	0.663202
0	C	0.80173	0.554352	0.161065
0	C	0.77442	0.0570715	0.338341
0	H	0.363455	0.442093	0.833104
0	H	0.234165	0.940432	0.667817
0	H	0.723551	0.536165	0.165814
0	H	0.852219	0.0391882	0.332612
0	H	0.275073	0.433816	0.884776
0	H	0.326769	0.932255	0.618487
0	H	0.815283	0.54522	0.116165
0	H	0.761817	0.0468526	0.383259
0	C	0.121445	0.361612	0.13964
0	C	0.447678	0.865499	0.358521
0	C	0.963119	0.615899	0.861646
0	C	0.63693	0.115024	0.64373
0	H	0.175771	0.346687	0.177787
0	H	0.387575	0.853838	0.322016
0	H	0.908396	0.630385	0.823523
0	H	0.696433	0.127136	0.680429
0	C	0.708884	0.422664	0.775222
0	C	0.893431	0.922947	0.730227
0	C	0.379562	0.554748	0.22814
0	C	0.194463	0.0576628	0.273218
0	H	0.659198	0.440006	0.736329
0	H	0.944023	0.94096	0.768524
0	H	0.429353	0.537429	0.267005
0	H	0.144407	0.0397374	0.234684
0	C	0.925965	0.190138	0.710818
0	C	0.678323	0.69501	0.785085
0	C	0.164175	0.781967	0.289522
0	C	0.411315	0.289279	0.216245
0	H	0.85967	0.157756	0.690134
0	H	0.744109	0.661383	0.804524
0	H	0.23094	0.814742	0.309022
0	H	0.345278	0.322394	0.196354
0	H	0.989446	0.181992	0.684381
0	H	0.61305	0.68327	0.80943
0	H	0.100988	0.792186	0.315792
0	H	0.475545	0.29911	0.190673
0	C	0.275107	0.755465	0.95975
0	C	0.301377	0.259154	0.535353
0	C	0.809479	0.222451	0.0414373
0	C	0.785322	0.720718	0.466748
0	H	0.2876	0.706965	0.983945
0	H	0.283917	0.212201	0.509624
0	H	0.797058	0.270746	0.0169553
0	H	0.802785	0.767731	0.492401
0	C	0.781628	0.468617	0.804265
0	C	0.821157	0.968738	0.700528
0	C	0.306715	0.508814	0.199166
0	C	0.26616	0.0117369	0.303213
0	H	0.78924	0.52122	0.787086
0	H	0.814289	0.0218723	0.716725
0	H	0.298974	0.456248	0.216335
0	H	0.272698	0.958505	0.287104
0	C	0.0246378	0.387879	0.14633
0	C	0.544551	0.88791	0.348176
0	C	0.0599998	0.589825	0.854874
0	C	0.54009	0.0921645	0.653753
0	H	0.00261824	0.393426	0.189406
0	H	0.561009	0.893883	0.303965
0	H	0.081775	0.584048	0.811753
0	H	0.523151	0.0862882	0.697875
0	C	0.328049	0.815919	0.98025
0	C	0.253831	0.322275	0.517178
0	C	0.756159	0.161966	0.0213973
0	C	0.832923	0.657634	0.485
0	H	0.381016	0.815086	0.0209866
0	H	0.199893	0.324904	0.476844
0	H	0.702801	0.162615	0.980808
0	H	0.886932	0.655074	0.525317
0	C	0.14518	0.314034	0.664591
0	C	0.455676	0.812112	0.838629
0	C	0.940999	0.664828	0.337781
0	C	0.629566	0.167324	0.164085
0	H	0.170421	0.308412	0.621048
0	H	0.431119	0.805567	0.882253
0	H	0.915252	0.671873	0.381059
0	H	0.653688	0.17322	0.120288
0	H	0.172253	0.365772	0.681928
0	H	0.427466	0.863932	0.822059
0	H	0.912272	0.613222	0.320921
0	H	0.656685	0.115322	0.180736
0	C	0.201942	0.458589	0.796798
0	C	0.393822	0.958032	0.707251
0	C	0.883454	0.518705	0.204657
0	C	0.691474	0.0221878	0.294841
0	C	0.0264629	0.309485	0.654924
0	C	0.574449	0.808564	0.847714
0	C	0.0598431	0.667203	0.348105
0	C	0.510899	0.172295	0.155604
0	H	0.995402	0.350069	0.622959
0	H	0.605074	0.847678	0.881066
0	H	0.0885906	0.627162	0.381091
0	H	0.478593	0.13284	0.12296
0	H	0.00504097	0.258206	0.633515
0	H	0.596863	0.756349	0.867082
0	H	0.0830198	0.7188	0.368448
0	H	0.489443	0.224313	0.135569
0	C	0.834997	0.380112	0.876288
0	C	0.765842	0.878753	0.630129
0	C	0.253327	0.597307	0.127117
0	C	0.321411	0.101834	0.373529
0	H	0.883342	0.363781	0.915994
0	H	0.717002	0.861808	0.590797
0	H	0.204885	0.613661	0.0874467
0	H	0.370102	0.118805	0.412908
0	C	0.844931	0.447396	0.854788
0	C	0.757221	0.946732	0.650497
0	C	0.243348	0.530043	0.148659
0	C	0.329784	0.033741	0.353365
0	H	0.901706	0.483426	0.877231
0	H	0.700958	0.982706	0.627548
0	H	0.186471	0.494048	0.126259
0	H	0.385599	0.997667	0.376551
0	C	0.0376719	0.440987	0.729417
0	C	0.557789	0.943219	0.775362
0	C	0.0442315	0.533774	0.275054
0	C	0.525144	0.0387871	0.22883
0	H	0.00852311	0.493409	0.740143
0	H	0.584739	0.996215	0.764435
0	H	0.0708168	0.480387	0.265035
0	H	0.496644	0.986377	0.240125
0	H	0.0716495	0.448031	0.688865
0	H	0.523372	0.94959	0.815827
0	H	0.00768381	0.528312	0.314907
0	H	0.557767	0.0316158	0.187874
0	C	0.948369	0.388496	0.720725
0	C	0.649554	0.892685	0.784497
0	C	0.136434	0.583856	0.285052
0	C	0.435313	0.0909491	0.220768
0	H	0.889353	0.408138	0.685115
0	H	0.705779	0.91241	0.821432
0	H	0.19185	0.563833	0.322231
0	H	0.376506	0.0715824	0.184929
0	H	0.910894	0.387548	0.760546
0	H	0.689237	0.894313	0.7455
0	H	0.177166	0.582391	0.246458
0	H	0.397997	0.0907997	0.260646
0	N	0.555542	0.272036	0.80211
0	N	0.0428835	0.77062	0.704066
0	N	0.532082	0.705887	0.200891
0	N	0.0439069	0.209241	0.298843
0	N	0.121085	0.294639	0.960663
0	N	0.469815	0.794326	0.538759
0	N	0.964412	0.683795	0.0405084
0	N	0.616492	0.185513	0.463339
0	N	0.224103	0.00715645	0.893844
0	N	0.370505	0.506111	0.609286
0	N	0.861489	0.971201	0.107718
0	N	0.715912	0.47362	0.393261
0	N	0.961221	0.163498	0.770044
0	N	0.647055	0.674939	0.723718
0	N	0.129015	0.805324	0.229308
0	N	0.44511	0.312691	0.276543
0	N	0.118085	0.417614	0.777199
0	N	0.478657	0.91836	0.727554
0	N	0.967175	0.558755	0.226242
0	N	0.606552	0.0624567	0.275935
0	N	0.198788	0.259826	0.703111
0	N	0.402379	0.758076	0.799779
0	N	0.889907	0.719138	0.298409
0	N	0.684571	0.221064	0.202564
0	N	0.983418	0.315475	0.710465
0	N	0.617459	0.818443	0.79248
0	N	0.103871	0.65794	0.293162
0	N	0.4693	0.164469	0.211451
0	O	0.0267596	0.141377	0.881894
0	O	0.56864	0.640496	0.617039
0	O	0.0563788	0.837184	0.119533
0	O	0.518282	0.339948	0.38525
0	O	0.27771	0.34955	0.826763
0	O	0.321167	0.848295	0.676345
0	O	0.810087	0.628475	0.174836
0	O	0.765741	0.131494	0.325838
0	O	0.285137	0.174064	0.783858
0	O	0.309483	0.673182	0.719953
0	O	0.800792	0.803782	0.21797
0	O	0.775947	0.306925	0.282624
0	O	0.209161	0.520138	0.783622
0	O	0.383789	0.019218	0.720737
0	O	0.874718	0.456991	0.216949
0	O	0.700515	0.961104	0.280804
0	O	0.806253	0.111799	0.775738
0	O	0.787215	0.604789	0.722148
0	O	0.273391	0.870919	0.227101
0	O	0.293654	0.369235	0.28217
0	O	0.133515	0.169228	0.644641
0	O	0.473583	0.666552	0.855212
0	O	0.957378	0.810064	0.35576
0	O	0.615289	0.312467	0.146322
0	Cl	0.180596	0.0842346	0.126982
0	Cl	0.391344	0.582309	0.375431
0	Cl	0.905117	0.894674	0.874199
0	Cl	0.694245	0.396655	0.627313
0	Cl	0.498588	0.180407	0.0150921
0	Cl	0.0925882	0.679439	0.490247
0	Cl	0.585703	0.797525	0.987611
0	Cl	0.993587	0.299638	0.512714
0	Cl	0.635577	0.0283668	0.918902
0	Cl	0.960084	0.526761	0.584651
0	Cl	0.450123	0.949774	0.0834987
0	Cl	0.125924	0.452348	0.418409
