#******************************************
#
# CIF file created by Zeo++
# Zeo++ is an open source package to
# analyze microporous materials
#
#*******************************************

_cell_length_a		41.8645(0)
_cell_length_b		41.475(0)
_cell_length_c		4.89641(0)
_cell_angle_alpha		90(0)
_cell_angle_beta		90(0)
_cell_angle_gamma		120.187(0)

_symmetry_space_group_name_H-M		'P1'
_symmetry_Int_Tables_number		1
_symmetry_cell_setting		Monoclinic

loop_
_symmetry_equiv_pos_as_xyz
'+x,+y,+z'

loop_
_atom_site_label
_atom_site_type_symbol
_atom_site_fract_x
_atom_site_fract_y
_atom_site_fract_z
0	O	0.180401	0.25047	0.581029
0	O	0.759911	0.940266	0.599414
0	O	0.072115	0.834351	0.586421
0	O	0.828817	0.765507	0.486718
0	O	0.249258	0.0770609	0.475091
0	O	0.937345	0.182631	0.484634
0	O	0.847383	0.587677	0.920548
0	O	0.426188	0.272918	0.921691
0	O	0.741632	0.164754	0.920794
0	O	0.496254	0.0964326	0.813043
0	O	0.916586	0.410686	0.818764
0	O	0.60256	0.518254	0.821522
0	O	0.512997	0.920511	0.258366
0	O	0.0928535	0.606296	0.252251
0	O	0.406829	0.49872	0.249266
0	O	0.16195	0.429195	0.150329
0	O	0.583231	0.744139	0.149981
0	O	0.267734	0.85226	0.149772
0	C	0.171263	0.222417	0.790015
0	C	0.788136	0.958581	0.806376
0	C	0.0536281	0.84373	0.795349
0	C	0.837931	0.793662	0.278597
0	C	0.221098	0.0585581	0.26789
0	C	0.955774	0.173201	0.275558
0	C	0.838231	0.559538	0.128772
0	C	0.454068	0.291543	0.130617
0	C	0.723208	0.174302	0.129036
0	C	0.505439	0.12475	0.606078
0	C	0.888516	0.391532	0.611912
0	C	0.621287	0.508983	0.613837
0	C	0.50381	0.892189	0.465294
0	C	0.120914	0.625449	0.459223
0	C	0.388074	0.507959	0.456929
0	C	0.17111	0.457337	0.942096
0	C	0.555352	0.72549	0.941132
0	C	0.286155	0.842698	0.941595
0	H	0.191818	0.234425	0.958945
0	H	0.777046	0.968002	0.976059
0	H	0.0447576	0.822966	0.964277
0	H	0.817419	0.781703	0.109397
0	H	0.232289	0.0490957	0.0991335
0	H	0.964658	0.193957	0.106574
0	H	0.858727	0.571538	0.298066
0	H	0.442391	0.300368	0.300109
0	H	0.714273	0.153595	0.298315
0	H	0.485137	0.11283	0.43546
0	H	0.900245	0.382826	0.441967
0	H	0.630082	0.529659	0.444384
0	H	0.524108	0.90411	0.635943
0	H	0.10917	0.634151	0.629085
0	H	0.379295	0.487273	0.626319
0	H	0.150607	0.445346	0.772854
0	H	0.567037	0.716678	0.771613
0	H	0.295109	0.863403	0.772306
0	O	0.135138	0.212497	0.888629
0	O	0.796967	0.931327	0.904607
0	O	0.0802789	0.88014	0.893839
0	O	0.874102	0.803724	0.180073
0	O	0.212257	0.085725	0.168017
0	O	0.92907	0.136804	0.17725
0	O	0.802038	0.549463	0.226992
0	O	0.463507	0.264713	0.228399
0	O	0.749913	0.210719	0.227413
0	O	0.541778	0.135116	0.509489
0	O	0.878485	0.417916	0.514055
0	O	0.594861	0.472456	0.515662
0	O	0.467466	0.881811	0.561794
0	O	0.130942	0.599065	0.557108
0	O	0.414475	0.544491	0.555208
0	O	0.20729	0.467379	0.843784
0	O	0.54588	0.752295	0.843324
0	O	0.259447	0.806287	0.843182
0	C	0.135791	0.243135	0.0350922
0	C	0.766224	0.901589	0.0508601
0	C	0.109835	0.879269	0.0406845
0	C	0.87357	0.773182	0.0330596
0	C	0.243016	0.115393	0.0213263
0	C	0.899527	0.137719	0.0306252
0	C	0.802489	0.579982	0.373677
0	C	0.43292	0.234592	0.373212
0	C	0.779559	0.209904	0.37346
0	C	0.541588	0.104812	0.361485
0	C	0.908626	0.448035	0.365724
0	C	0.565135	0.472964	0.368439
0	C	0.467633	0.912102	0.709832
0	C	0.100792	0.568927	0.705204
0	C	0.444209	0.544005	0.702534
0	C	0.206796	0.436839	0.697081
0	C	0.576446	0.782416	0.698325
0	C	0.229812	0.807111	0.697078
0	H	0.154079	0.249829	0.217178
0	H	0.759829	0.913555	0.23255
0	H	0.0979806	0.860935	0.223204
0	H	0.855272	0.766454	0.850991
0	H	0.249343	0.103332	0.839853
0	H	0.911377	0.156023	0.847974
0	H	0.820753	0.586754	0.555879
0	H	0.426227	0.246263	0.555182
0	H	0.767799	0.191505	0.555697
0	H	0.523407	0.0980831	0.178682
0	H	0.915196	0.436287	0.183413
0	H	0.576861	0.491398	0.186226
0	H	0.485813	0.918836	0.89264
0	H	0.0941937	0.580658	0.887477
0	H	0.432478	0.525547	0.884641
0	H	0.188543	0.430098	0.51487
0	H	0.583133	0.770744	0.516338
0	H	0.241578	0.825511	0.514853
0	H	0.10665	0.231072	0.103345
0	H	0.777534	0.883722	0.119103
0	H	0.127379	0.908692	0.108132
0	H	0.902727	0.785354	0.96484
0	H	0.231721	0.133254	0.952675
0	H	0.881939	0.108296	0.963369
0	H	0.773314	0.567817	0.441373
0	H	0.444525	0.216971	0.441015
0	H	0.797107	0.239317	0.441181
0	H	0.57082	0.11718	0.294611
0	H	0.896533	0.465218	0.298047
0	H	0.54784	0.443518	0.300728
0	H	0.4384	0.899718	0.776671
0	H	0.112882	0.551742	0.772918
0	H	0.46148	0.57345	0.770393
0	H	0.235969	0.448976	0.62939
0	H	0.564812	0.800011	0.630519
0	H	0.212264	0.777698	0.629319
0	C	0.148996	0.277318	0.84763
0	C	0.732527	0.881249	0.861028
0	C	0.130209	0.865672	0.85356
0	C	0.860475	0.738984	0.220169
0	C	0.276763	0.135788	0.210681
0	C	0.879213	0.151379	0.217826
0	C	0.815588	0.614141	0.186203
0	C	0.399261	0.213984	0.183336
0	C	0.799918	0.196377	0.185559
0	C	0.528487	0.070488	0.54738
0	C	0.942629	0.469237	0.551826
0	C	0.544454	0.486263	0.555108
0	C	0.480719	0.946421	0.523949
0	C	0.0668089	0.547728	0.518983
0	C	0.464922	0.530744	0.515874
0	C	0.193657	0.402665	0.884458
0	C	0.610116	0.803051	0.888132
0	C	0.20945	0.820633	0.885
0	H	0.156151	0.302946	0.973897
0	H	0.70696	0.862374	0.984149
0	H	0.148313	0.858331	0.979832
0	H	0.853523	0.713423	0.0938026
0	H	0.302322	0.154555	0.0871233
0	H	0.861131	0.158755	0.0916247
0	H	0.82245	0.639714	0.312036
0	H	0.37377	0.195019	0.30696
0	H	0.818284	0.189309	0.311109
0	H	0.521865	0.0450999	0.42014
0	H	0.967834	0.488005	0.424878
0	H	0.526043	0.493143	0.428437
0	H	0.48733	0.971803	0.651212
0	H	0.0415956	0.528957	0.645843
0	H	0.483336	0.52387	0.642591
0	H	0.186766	0.377085	0.758602
0	H	0.635596	0.822024	0.764449
0	H	0.19107	0.827686	0.759517
0	C	0.183808	0.284529	0.688606
0	C	0.725925	0.909858	0.707505
0	C	0.102231	0.830613	0.694447
0	C	0.825525	0.731548	0.378214
0	C	0.283304	0.107236	0.365647
0	C	0.907252	0.186424	0.376817
0	C	0.850593	0.621608	0.0288935
0	C	0.392304	0.242296	0.0289317
0	C	0.771812	0.161132	0.0289272
0	C	0.493248	0.0626738	0.70295
0	C	0.950152	0.44142	0.708161
0	C	0.572291	0.521621	0.712086
0	C	0.515957	0.954255	0.368309
0	C	0.0592868	0.575539	0.362569
0	C	0.437117	0.495387	0.358761
0	C	0.158666	0.39524	0.0417872
0	C	0.617104	0.774757	0.0425072
0	C	0.237558	0.855884	0.0415997
0	H	0.188476	0.301613	0.502446
0	H	0.708682	0.897942	0.521986
0	H	0.114424	0.825809	0.508481
0	H	0.820776	0.714352	0.563873
0	H	0.30065	0.119268	0.55058
0	H	0.895094	0.191263	0.562824
0	H	0.855354	0.638812	0.84333
0	H	0.37519	0.230211	0.843073
0	H	0.783913	0.156168	0.843164
0	H	0.488263	0.0452115	0.887409
0	H	0.967517	0.453931	0.892316
0	H	0.56002	0.526548	0.897107
0	H	0.52091	0.971688	0.183729
0	H	0.0419598	0.563034	0.178243
0	H	0.449406	0.490493	0.173685
0	H	0.153877	0.378007	0.227207
0	H	0.634245	0.786858	0.228239
0	H	0.225453	0.860861	0.227289
0	H	0.208543	0.298251	0.821209
0	H	0.712985	0.921324	0.843967
0	H	0.0907778	0.80563	0.826893
0	H	0.800889	0.717869	0.244584
0	H	0.296083	0.0955345	0.229867
0	H	0.918732	0.211398	0.24426
0	H	0.875182	0.635279	0.16295
0	H	0.379073	0.253524	0.164695
0	H	0.76043	0.13633	0.163207
0	H	0.468847	0.0491015	0.566798
0	H	0.963446	0.430212	0.572724
0	H	0.58359	0.546401	0.57754
0	H	0.540367	0.967867	0.504363
0	H	0.0459494	0.586716	0.49785
0	H	0.425832	0.470592	0.49317
0	H	0.134077	0.381623	0.907748
0	H	0.630313	0.76352	0.906627
0	H	0.248943	0.880675	0.907205
0	N	0.118323	0.269894	0.658567
0	N	0.740199	0.858443	0.667326
0	N	0.153791	0.896584	0.664359
0	N	0.891132	0.746578	0.409991
0	N	0.269147	0.158733	0.403393
0	N	0.855609	0.120495	0.407125
0	N	0.78499	0.606426	0.995637
0	N	0.407029	0.191226	0.989893
0	N	0.823136	0.227104	0.994125
0	N	0.558973	0.078112	0.739044
0	N	0.935097	0.492393	0.742998
0	N	0.521265	0.455477	0.746219
0	N	0.450231	0.938793	0.332314
0	N	0.0743435	0.524572	0.327825
0	N	0.488115	0.561551	0.324902
0	N	0.224246	0.410343	0.0750358
0	N	0.602324	0.825795	0.0815348
0	N	0.186259	0.789901	0.0764619
0	H	0.104762	0.24355	0.57147
0	H	0.766537	0.871586	0.583825
0	H	0.14127	0.910167	0.576429
0	H	0.90458	0.772951	0.49667
0	H	0.242841	0.145562	0.487601
0	H	0.868104	0.106905	0.495348
0	H	0.771447	0.579967	0.910302
0	H	0.433396	0.20431	0.906917
0	H	0.810523	0.240714	0.907912
0	H	0.572733	0.104628	0.822996
0	H	0.908887	0.479521	0.828254
0	H	0.533953	0.442055	0.834079
0	H	0.436489	0.912281	0.248283
0	H	0.100546	0.537447	0.24245
0	H	0.475415	0.574966	0.23711
0	H	0.237787	0.43679	0.160575
0	H	0.575946	0.81271	0.164289
0	H	0.198884	0.776294	0.162535
0	C	0.11661	0.298616	0.530867
0	C	0.712091	0.828339	0.533075
0	C	0.183602	0.89779	0.534432
0	C	0.892817	0.717939	0.539315
0	C	0.297325	0.188729	0.538303
0	C	0.825746	0.119258	0.536364
0	C	0.783071	0.634894	0.865832
0	C	0.378913	0.16132	0.853789
0	C	0.852931	0.228553	0.862107
0	C	0.560412	0.0495185	0.8712
0	C	0.963387	0.52289	0.872941
0	C	0.49107	0.453645	0.874212
0	C	0.448773	0.967375	0.200202
0	C	0.0460683	0.494043	0.198259
0	C	0.518288	0.56337	0.196645
0	C	0.226133	0.381857	0.204834
0	C	0.630426	0.855699	0.217829
0	C	0.156435	0.78839	0.208386
0	O	0.133619	0.332088	0.582221
0	O	0.678818	0.811557	0.580772
0	O	0.199438	0.880394	0.585288
0	O	0.875807	0.684434	0.489039
0	O	0.330591	0.205454	0.49063
0	O	0.809892	0.136625	0.485054
0	O	0.799987	0.66844	0.914613
0	O	0.345633	0.144483	0.901146
0	O	0.869248	0.211609	0.911968
0	O	0.542858	0.0159151	0.824803
0	O	0.996618	0.539331	0.824363
0	O	0.474784	0.470572	0.822258
0	O	0.46631	0.000982521	0.246739
0	O	0.0128287	0.477581	0.24703
0	O	0.534546	0.546406	0.248327
0	O	0.209252	0.348312	0.155891
0	O	0.663711	0.872533	0.170708
0	O	0.140066	0.805288	0.158601
0	O	0.0889614	0.283156	0.335237
0	O	0.727923	0.816831	0.335331
0	O	0.19614	0.925547	0.337597
0	O	0.920441	0.733519	0.735082
0	O	0.281534	0.200246	0.736263
0	O	0.813152	0.0914795	0.733107
0	O	0.755322	0.619022	0.671117
0	O	0.394762	0.150112	0.654189
0	O	0.864713	0.256031	0.663483
0	O	0.588386	0.0652147	0.0642987
0	O	0.947712	0.535074	0.067071
0	O	0.47887	0.425898	0.0710568
0	O	0.420816	0.951691	0.00702638
0	O	0.0617206	0.481852	0.00401626
0	O	0.530482	0.591125	0.999886
0	O	0.253841	0.397738	0.399916
0	O	0.614542	0.86692	0.41707
0	O	0.144671	0.760888	0.406823
0	C	0.0826902	0.309596	0.179883
0	C	0.702222	0.783979	0.177258
0	C	0.228508	0.931466	0.182258
0	C	0.926767	0.707169	0.891183
0	C	0.307277	0.233107	0.894125
0	C	0.780769	0.0855905	0.888114
0	C	0.748887	0.645113	0.512557
0	C	0.36924	0.117076	0.497103
0	C	0.897438	0.263029	0.508059
0	C	0.594255	0.0388611	0.224578
0	C	0.973607	0.567812	0.225506
0	C	0.446185	0.419269	0.225329
0	C	0.414941	0.978046	0.846838
0	C	0.0358175	0.449108	0.845756
0	C	0.563132	0.59774	0.845218
0	C	0.260321	0.371676	0.558408
0	C	0.640048	0.899936	0.574506
0	C	0.111956	0.753876	0.562437
0	H	0.101563	0.31745	0.00228129
0	H	0.694501	0.795176	0.999734
0	H	0.217124	0.91235	0.00513408
0	H	0.907908	0.699359	0.0687938
0	H	0.314999	0.221913	0.0716607
0	H	0.792145	0.104734	0.065122
0	H	0.767742	0.652727	0.335015
0	H	0.361306	0.128024	0.3192
0	H	0.886507	0.243899	0.330736
0	H	0.575443	0.0316679	0.401959
0	H	0.981179	0.556464	0.403011
0	H	0.457194	0.438369	0.402834
0	H	0.433757	0.98525	0.669453
0	H	0.0282444	0.460449	0.668197
0	H	0.552082	0.578671	0.667588
0	H	0.241455	0.364026	0.73589
0	H	0.647965	0.88896	0.752341
0	H	0.122896	0.773006	0.739769
0	H	0.0904703	0.334763	0.307705
0	H	0.677129	0.766203	0.302865
0	H	0.245466	0.923451	0.310451
0	H	0.918999	0.681955	0.763949
0	H	0.332357	0.250854	0.768304
0	H	0.76383	0.093591	0.759577
0	H	0.756702	0.670481	0.638158
0	H	0.344242	0.0992145	0.623194
0	H	0.914881	0.255624	0.635885
0	H	0.586005	0.0132893	0.100193
0	H	0.998721	0.585422	0.0997551
0	H	0.428988	0.426904	0.096518
0	H	0.423185	0.0036121	0.971307
0	H	0.0107015	0.431512	0.971534
0	H	0.580325	0.590055	0.973634
0	H	0.252535	0.346319	0.432765
0	H	0.665056	0.91782	0.44854
0	H	0.0944975	0.761277	0.434769
0	N	0.189703	0.143986	0.637398
0	N	0.868606	0.054444	0.65118
0	N	0.957643	0.82612	0.647227
0	N	0.819258	0.871902	0.433324
0	N	0.140719	0.96264	0.422485
0	N	0.0516728	0.190512	0.423053
0	N	0.85658	0.480971	0.977955
0	N	0.532907	0.388538	0.980731
0	N	0.627379	0.157116	0.977754
0	N	0.485394	0.202002	0.763296
0	N	0.811048	0.293981	0.765432
0	N	0.717504	0.527438	0.766456
0	N	0.52389	0.814958	0.308123
0	N	0.198366	0.723006	0.305402
0	N	0.291811	0.489393	0.304732
0	N	0.152813	0.535938	0.0928901
0	N	0.476516	0.628476	0.0904533
0	N	0.381943	0.859808	0.0934952
0	C	0.188811	0.17277	0.763622
0	C	0.839321	0.0253993	0.777683
0	C	0.986992	0.826664	0.771631
0	C	0.820193	0.843176	0.306554
0	C	0.169977	0.991731	0.296146
0	C	0.0223669	0.190086	0.298923
0	C	0.855826	0.509906	0.102788
0	C	0.503973	0.358923	0.105462
0	C	0.656571	0.157419	0.102802
0	C	0.486784	0.173564	0.635871
0	C	0.839552	0.323861	0.639541
0	C	0.688131	0.526688	0.640865
0	C	0.522484	0.84339	0.435521
0	C	0.169872	0.693127	0.431395
0	C	0.321216	0.490191	0.43023
0	C	0.15355	0.506996	0.968051
0	C	0.50546	0.658103	0.965913
0	C	0.35278	0.859543	0.968304
0	H	0.20559	0.18362	0.949458
0	H	0.829244	0.0321935	0.963604
0	H	0.980871	0.809742	0.957596
0	H	0.803397	0.832346	0.12078
0	H	0.180087	0.984984	0.110178
0	H	0.0285169	0.207009	0.112935
0	H	0.872675	0.520874	0.28818
0	H	0.493292	0.365136	0.290823
0	H	0.650255	0.140379	0.288213
0	H	0.46999	0.162581	0.450171
0	H	0.850367	0.317886	0.453806
0	H	0.694269	0.543654	0.455152
0	H	0.539279	0.854384	0.621222
0	H	0.159056	0.699113	0.617082
0	H	0.315109	0.473234	0.615957
0	H	0.136701	0.496037	0.78266
0	H	0.51615	0.651913	0.780502
0	H	0.359127	0.876591	0.782908
0	C	0.16934	0.189243	0.650627
0	C	0.82153	0.989098	0.665191
0	C	0.0228096	0.845959	0.656785
0	C	0.839746	0.826741	0.418814
0	C	0.187693	0.0280273	0.4088
0	C	0.986558	0.170888	0.413944
0	C	0.836385	0.526396	0.9893
0	C	0.487172	0.322723	0.99162
0	C	0.69249	0.176636	0.989526
0	C	0.506806	0.157568	0.747189
0	C	0.855777	0.360096	0.752434
0	C	0.652217	0.507105	0.753972
0	C	0.502453	0.859375	0.324181
0	C	0.153646	0.656886	0.318636
0	C	0.357117	0.509794	0.316891
0	C	0.172976	0.490489	0.0815527
0	C	0.522249	0.694293	0.0799892
0	C	0.316847	0.840331	0.081283
0	C	0.149966	0.174979	0.406342
0	C	0.834983	0.982943	0.421071
0	C	0.0281627	0.865521	0.412516
0	C	0.859162	0.841005	0.662954
0	C	0.174159	0.0341345	0.652696
0	C	0.981161	0.151295	0.658127
0	C	0.816979	0.512041	0.745286
0	C	0.50118	0.317303	0.747493
0	C	0.698081	0.196331	0.745644
0	C	0.526199	0.171972	0.9912
0	C	0.841536	0.365256	0.996329
0	C	0.646834	0.487522	0.998133
0	C	0.483082	0.844978	0.0801028
0	C	0.167858	0.651723	0.0746084
0	C	0.362449	0.529328	0.0725671
0	C	0.192402	0.504852	0.325503
0	C	0.508205	0.699688	0.324025
0	C	0.311203	0.820581	0.324959
0	H	0.134271	0.187037	0.317153
0	H	0.822001	0.954861	0.332538
0	H	0.0558329	0.88113	0.322051
0	H	0.874953	0.829014	0.751476
0	H	0.187065	0.0622158	0.741252
0	H	0.953491	0.135761	0.748677
0	H	0.801237	0.524018	0.655766
0	H	0.488912	0.289347	0.657793
0	H	0.72583	0.211949	0.656497
0	H	0.542398	0.160391	0.0788155
0	H	0.85328	0.393218	0.0851742
0	H	0.619102	0.471659	0.0872082
0	H	0.466878	0.856551	0.992435
0	H	0.156104	0.623757	0.985825
0	H	0.390164	0.545193	0.983221
0	H	0.208135	0.492864	0.415022
0	H	0.520458	0.727635	0.413896
0	H	0.283435	0.804946	0.413742
0	C	0.151011	0.145516	0.274713
0	C	0.864924	0.012833	0.288799
0	C	0.997977	0.864803	0.282701
0	C	0.858046	0.870388	0.795302
0	C	0.144241	0.00419301	0.784743
0	C	0.0113043	0.151897	0.787723
0	C	0.817974	0.482501	0.614449
0	C	0.530718	0.347774	0.616829
0	C	0.668054	0.195792	0.614592
0	C	0.52456	0.201014	0.124524
0	C	0.812415	0.334511	0.128021
0	C	0.677055	0.488518	0.129676
0	C	0.484727	0.815938	0.946825
0	C	0.196959	0.682464	0.942719
0	C	0.332199	0.52829	0.941198
0	C	0.191419	0.534399	0.456347
0	C	0.478649	0.669202	0.454409
0	C	0.341204	0.82109	0.456245
0	H	0.134994	0.133144	0.0899801
0	H	0.876632	0.00833207	0.104119
0	H	0.00180238	0.880979	0.098149
0	H	0.874076	0.882732	0.980039
0	H	0.132481	0.00864775	0.969318
0	H	0.00744484	0.1357	0.972203
0	H	0.801986	0.470103	0.429645
0	H	0.542837	0.343881	0.432047
0	H	0.67209	0.212012	0.429852
0	H	0.540526	0.213454	0.309334
0	H	0.800112	0.338173	0.31272
0	H	0.673191	0.472369	0.314515
0	H	0.468771	0.803498	0.761988
0	H	0.209237	0.678795	0.757904
0	H	0.336026	0.544415	0.75629
0	H	0.207415	0.546798	0.641127
0	H	0.466498	0.673074	0.639099
0	H	0.33713	0.804843	0.640891
0	C	0.171402	0.130901	0.397197
0	C	0.880893	0.0482597	0.4109
0	C	0.963075	0.844584	0.406999
0	C	0.83758	0.884962	0.673517
0	C	0.128364	0.968775	0.662638
0	C	0.0461996	0.172014	0.663169
0	C	0.838218	0.467798	0.738028
0	C	0.545748	0.383026	0.740626
0	C	0.633073	0.175725	0.737854
0	C	0.50367	0.215157	0.00357025
0	C	0.798023	0.299246	0.00555952
0	C	0.712021	0.508957	0.00672837
0	C	0.505617	0.801798	0.0678604
0	C	0.211359	0.717734	0.065144
0	C	0.297248	0.507832	0.06432
0	C	0.171179	0.549107	0.332825
0	C	0.463635	0.633963	0.330455
0	C	0.376202	0.841155	0.33324
0	H	0.173738	0.108053	0.301425
0	H	0.904225	0.0729755	0.314891
0	H	0.938193	0.842605	0.312916
0	H	0.835215	0.907761	0.769768
0	H	0.105053	0.944024	0.758444
0	H	0.0710498	0.173885	0.75699
0	H	0.840266	0.444737	0.64371
0	H	0.568784	0.408145	0.646246
0	H	0.608366	0.174055	0.643324
0	H	0.500981	0.237713	0.100405
0	H	0.775374	0.2739	0.100909
0	H	0.736919	0.511098	0.101846
0	H	0.508302	0.779237	0.971073
0	H	0.233989	0.743076	0.969607
0	H	0.272327	0.505649	0.969294
0	H	0.169128	0.572166	0.427169
0	H	0.440581	0.608834	0.424563
0	H	0.400891	0.842795	0.4279
0	C	0.0426966	0.289486	0.0992215
0	C	0.722536	0.764195	0.0975359
0	C	0.249186	0.971772	0.100233
0	C	0.966773	0.727351	0.971559
0	C	0.286961	0.252894	0.973595
0	C	0.760072	0.0452997	0.970525
0	C	0.708842	0.624861	0.432739
0	C	0.389913	0.0976002	0.418523
0	C	0.917044	0.303435	0.4279
0	C	0.634267	0.0585386	0.305149
0	C	0.953507	0.587816	0.305867
0	C	0.426113	0.378912	0.30647
0	C	0.374938	0.958381	0.766133
0	C	0.0558798	0.429069	0.765316
0	C	0.58324	0.63811	0.764406
0	C	0.300376	0.391981	0.638079
0	C	0.619345	0.919381	0.653063
0	C	0.0923652	0.71347	0.642597
0	C	0.0317418	0.268721	0.857234
0	C	0.743143	0.774074	0.85568
0	C	0.239697	0.982964	0.858531
0	C	0.977746	0.74813	0.213489
0	C	0.266343	0.24302	0.215366
0	C	0.769574	0.034142	0.212341
0	C	0.697809	0.604105	0.190664
0	C	0.41055	0.10752	0.176776
0	C	0.907179	0.314309	0.186414
0	C	0.645446	0.0792807	0.547324
0	C	0.932859	0.577932	0.547625
0	C	0.435814	0.367982	0.548455
0	C	0.363784	0.937642	0.523947
0	C	0.0765283	0.438951	0.523543
0	C	0.573586	0.649088	0.522445
0	C	0.311426	0.412742	0.880131
0	C	0.598717	0.909464	0.894833
0	C	0.102238	0.702603	0.884101
0	H	0.0513875	0.264363	0.739079
0	H	0.747169	0.798094	0.736435
0	H	0.215284	0.963371	0.742335
0	H	0.958094	0.752448	0.331901
0	H	0.262343	0.219025	0.334792
0	H	0.794007	0.0537461	0.328312
0	H	0.717443	0.599825	0.0715715
0	H	0.414392	0.131401	0.0565434
0	H	0.883362	0.294217	0.0673085
0	H	0.625961	0.0838463	0.666011
0	H	0.928668	0.553794	0.666313
0	H	0.459868	0.387928	0.666309
0	H	0.383269	0.933051	0.405497
0	H	0.0807615	0.463119	0.40504
0	H	0.549542	0.629172	0.404375
0	H	0.291785	0.416988	0.999438
0	H	0.59491	0.885604	0.0152061
0	H	0.126063	0.722701	0.0031677
0	C	0.995587	0.253807	0.76025
0	C	0.758342	0.752894	0.760218
0	C	0.261747	0.0192704	0.759417
0	C	0.0139307	0.763112	0.310053
0	C	0.251078	0.264159	0.310395
0	C	0.747515	0.997861	0.311878
0	C	0.661598	0.589107	0.0947106
0	C	0.426061	0.0865576	0.0827235
0	C	0.928067	0.350987	0.0913444
0	C	0.681595	0.0939323	0.643709
0	C	0.917785	0.599213	0.643497
0	C	0.414448	0.331467	0.645511
0	C	0.32766	0.92303	0.427173
0	C	0.0915262	0.417619	0.427325
0	C	0.594991	0.685612	0.425659
0	C	0.347663	0.427792	0.975732
0	C	0.58315	0.930385	0.988672
0	C	0.0813479	0.66593	0.979255
0	H	0.986531	0.236344	0.577111
0	H	0.775578	0.761338	0.576769
0	H	0.253628	0.0285277	0.576441
0	H	0.023004	0.780584	0.493164
0	H	0.233814	0.255691	0.493713
0	H	0.755649	0.988624	0.49492
0	H	0.652509	0.571698	0.911407
0	H	0.443275	0.0949684	0.8993
0	H	0.919647	0.359913	0.908372
0	H	0.690802	0.11135	0.827016
0	H	0.900468	0.59076	0.826524
0	H	0.422746	0.322451	0.828782
0	H	0.31848	0.90562	0.243839
0	H	0.108826	0.42606	0.244203
0	H	0.586731	0.694657	0.242353
0	H	0.356767	0.445208	0.159004
0	H	0.565925	0.921962	0.172023
0	H	0.0897747	0.657004	0.1622
0	C	0.970394	0.259809	0.90805
0	C	0.752857	0.721723	0.909747
0	C	0.293425	0.0443774	0.904974
0	C	0.0391282	0.757165	0.161822
0	C	0.256513	0.295279	0.160473
0	C	0.715806	0.972751	0.166694
0	C	0.636397	0.594992	0.243439
0	C	0.420869	0.0555789	0.233371
0	C	0.958957	0.376829	0.240656
0	C	0.706591	0.0877062	0.495156
0	C	0.923484	0.630528	0.494829
0	C	0.383248	0.305888	0.497753
0	C	0.302656	0.929289	0.575306
0	C	0.085762	0.386257	0.57568
0	C	0.62618	0.711161	0.573717
0	C	0.372865	0.421948	0.826654
0	C	0.588291	0.961328	0.837824
0	C	0.0504443	0.64009	0.830101
0	H	0.942184	0.248827	0.830633
0	H	0.764144	0.704558	0.83398
0	H	0.311308	0.0727117	0.82589
0	H	0.0673666	0.768201	0.238898
0	H	0.245166	0.312412	0.235783
0	H	0.697916	0.944438	0.246099
0	H	0.608147	0.583946	0.16661
0	H	0.432407	0.0385853	0.15839
0	H	0.975931	0.405488	0.164741
0	H	0.734772	0.0984479	0.572503
0	H	0.912424	0.647845	0.571723
0	H	0.365883	0.277369	0.575329
0	H	0.274496	0.918577	0.497643
0	H	0.0967495	0.368895	0.498476
0	H	0.64357	0.739685	0.496321
0	H	0.401131	0.433024	0.903255
0	H	0.576708	0.97829	0.912636
0	H	0.0334615	0.611436	0.906104
0	C	0.980963	0.279428	0.15406
0	C	0.733328	0.712579	0.155275
0	C	0.302136	0.0336013	0.150818
0	C	0.0285386	0.737543	0.915844
0	C	0.276058	0.304415	0.915003
0	C	0.707076	0.983487	0.920766
0	C	0.647045	0.614607	0.489405
0	C	0.401335	0.0464171	0.478877
0	C	0.968053	0.366317	0.486088
0	C	0.695824	0.0681182	0.249108
0	C	0.942947	0.639609	0.248992
0	C	0.374317	0.316428	0.251771
0	C	0.313396	0.948879	0.821368
0	C	0.0663003	0.377173	0.821514
0	C	0.635065	0.700575	0.8197
0	C	0.362202	0.40234	0.580671
0	C	0.607816	0.970486	0.59226
0	C	0.0413456	0.650593	0.584641
0	H	0.961281	0.283885	0.269338
0	H	0.729228	0.688438	0.271667
0	H	0.326709	0.0531842	0.263852
0	H	0.0482269	0.733142	0.800173
0	H	0.280115	0.328513	0.798284
0	H	0.68248	0.963897	0.808033
0	H	0.627351	0.618966	0.605457
0	H	0.397504	0.0224366	0.596202
0	H	0.991945	0.386503	0.602553
0	H	0.715424	0.0635941	0.133111
0	H	0.947078	0.663792	0.1329
0	H	0.350169	0.296415	0.136767
0	H	0.293796	0.953442	0.936993
0	H	0.0621078	0.352943	0.937298
0	H	0.659199	0.720564	0.934993
0	H	0.381899	0.398029	0.464245
0	H	0.61159	0.994426	0.47469
0	H	0.0174433	0.630409	0.46829
0	C	0.0169582	0.294096	0.253947
0	C	0.718308	0.733803	0.253362
0	C	0.279974	0.997493	0.253233
0	C	0.992516	0.722804	0.816408
0	C	0.291135	0.283227	0.817319
0	C	0.729254	0.0195672	0.817871
0	C	0.683101	0.629367	0.588303
0	C	0.386017	0.067434	0.575667
0	C	0.947093	0.32979	0.583993
0	C	0.659794	0.0536208	0.150175
0	C	0.957826	0.618273	0.150366
0	C	0.395758	0.352785	0.151748
0	C	0.349404	0.963335	0.920724
0	C	0.0514828	0.398553	0.920448
0	C	0.613592	0.664203	0.91936
0	C	0.326124	0.38753	0.482156
0	C	0.623176	0.949501	0.495652
0	C	0.0623157	0.687111	0.486569
0	H	0.0253353	0.310548	0.44124
0	H	0.701935	0.725653	0.440228
0	H	0.287712	0.98898	0.440881
0	H	0.984129	0.706356	0.629114
0	H	0.307501	0.29136	0.63041
0	H	0.721498	0.0280457	0.630155
0	H	0.691552	0.645806	0.775638
0	H	0.369684	0.0593016	0.762735
0	H	0.955147	0.321506	0.771209
0	H	0.651169	0.0370889	0.963225
0	H	0.974135	0.626351	0.963101
0	H	0.387841	0.361165	0.964297
0	H	0.358011	0.979871	0.107672
0	H	0.0351561	0.390462	0.107619
0	H	0.621477	0.65578	0.106756
0	H	0.317663	0.371097	0.294804
0	H	0.639491	0.957625	0.308491
0	H	0.0542622	0.695383	0.299302
