#******************************************
#
# CIF file created by Zeo++
# Zeo++ is an open source package to
# analyze microporous materials
#
#*******************************************

_cell_length_a		12.437(0)
_cell_length_b		12.4122(0)
_cell_length_c		26.7471(0)
_cell_angle_alpha		90(0)
_cell_angle_beta		90(0)
_cell_angle_gamma		120.209(0)

_symmetry_space_group_name_H-M		'P1'
_symmetry_Int_Tables_number		1
_symmetry_cell_setting		Monoclinic

loop_
_symmetry_equiv_pos_as_xyz
'+x,+y,+z'

loop_
_atom_site_label
_atom_site_type_symbol
_atom_site_fract_x
_atom_site_fract_y
_atom_site_fract_z
0	O	0.784793	0.811295	0.0151789
0	O	0.212759	0.981957	0.0160898
0	O	0.04382	0.240191	0.0148656
0	O	0.213082	0.240584	0.514486
0	O	0.0430492	0.811973	0.514932
0	O	0.785001	0.980928	0.514455
0	O	0.450158	0.145463	0.344863
0	O	0.878128	0.316267	0.345067
0	O	0.70897	0.574321	0.345158
0	O	0.879525	0.575249	0.851329
0	O	0.708277	0.146301	0.850695
0	O	0.451295	0.316513	0.85072
0	O	0.115048	0.480101	0.684612
0	O	0.542513	0.647291	0.683639
0	O	0.377171	0.908677	0.684868
0	O	0.543743	0.909004	0.179167
0	O	0.375845	0.480563	0.177685
0	O	0.115903	0.647324	0.179148
0	C	0.888494	0.901566	0.0151281
0	C	0.122845	0.995281	0.0155432
0	C	0.030053	0.136488	0.014863
0	C	0.123156	0.136723	0.515802
0	C	0.0295609	0.901899	0.516012
0	C	0.888401	0.994638	0.515723
0	C	0.553749	0.235671	0.34622
0	C	0.788204	0.329492	0.346308
0	C	0.695179	0.470671	0.346347
0	C	0.789314	0.471462	0.851837
0	C	0.695211	0.236528	0.851512
0	C	0.554657	0.330009	0.851529
0	C	0.219054	0.569816	0.68546
0	C	0.453263	0.661622	0.68499
0	C	0.362415	0.804618	0.68559
0	C	0.454022	0.804897	0.179152
0	C	0.36176	0.570161	0.17848
0	C	0.219633	0.661729	0.179169
0	N	0.910133	0.0261552	0.015067
0	N	0.998279	0.891852	0.0157514
0	N	0.132899	0.115268	0.0152307
0	N	0.998659	0.114741	0.516693
0	N	0.132796	0.0267162	0.517018
0	N	0.909719	0.891632	0.516773
0	N	0.575299	0.360246	0.347299
0	N	0.663645	0.226086	0.347265
0	N	0.798025	0.449361	0.347316
0	N	0.665064	0.450028	0.852444
0	N	0.798591	0.361178	0.852434
0	N	0.575637	0.226832	0.852228
0	N	0.241866	0.694897	0.686413
0	N	0.328272	0.558997	0.686049
0	N	0.464569	0.782197	0.686121
0	N	0.32933	0.782361	0.179536
0	N	0.464459	0.695266	0.179232
0	N	0.241577	0.559103	0.179265
0	C	0.801476	0.0420236	0.0199921
0	C	0.981693	0.766671	0.0206436
0	C	0.257785	0.224658	0.0201187
0	C	0.983082	0.223639	0.521953
0	C	0.257424	0.0427669	0.522244
0	C	0.800919	0.766453	0.522064
0	C	0.466573	0.375938	0.352439
0	C	0.647273	0.101085	0.35257
0	C	0.92271	0.558769	0.352579
0	C	0.649117	0.558805	0.857478
0	C	0.923249	0.377211	0.857465
0	C	0.466719	0.101676	0.857324
0	C	0.133668	0.711635	0.691472
0	C	0.310934	0.433517	0.691213
0	C	0.590286	0.890312	0.691335
0	C	0.31247	0.890699	0.184417
0	C	0.589482	0.712054	0.184118
0	C	0.13335	0.433322	0.184272
0	C	0.743878	0.0212858	0.0669142
0	C	0.00275784	0.729474	0.0674312
0	C	0.294571	0.28323	0.0669176
0	C	0.0021857	0.279769	0.569167
0	C	0.2944	0.0233266	0.569361
0	C	0.744046	0.729565	0.569142
0	C	0.409586	0.355834	0.399478
0	C	0.667599	0.0644338	0.39961
0	C	0.959502	0.615609	0.399684
0	C	0.669417	0.616347	0.904422
0	C	0.959384	0.354793	0.904237
0	C	0.409281	0.0646381	0.904308
0	C	0.0765583	0.691926	0.738461
0	C	0.330224	0.39619	0.738281
0	C	0.627885	0.947479	0.738354
0	C	0.33181	0.948078	0.231368
0	C	0.627581	0.694059	0.231245
0	C	0.0763075	0.395244	0.231271
0	H	0.776684	0.990531	0.0986728
0	H	0.0337504	0.793099	0.0992623
0	H	0.230319	0.251284	0.0984943
0	H	0.0306215	0.245076	0.601027
0	H	0.23135	0.994725	0.601287
0	H	0.777872	0.793362	0.600892
0	H	0.443066	0.326034	0.431309
0	H	0.698113	0.128375	0.431323
0	H	0.896145	0.58107	0.43152
0	H	0.700821	0.584018	0.936136
0	H	0.89486	0.321865	0.93573
0	H	0.442203	0.128705	0.93599
0	H	0.109693	0.661885	0.770339
0	H	0.360093	0.45967	0.770142
0	H	0.56394	0.915177	0.770031
0	H	0.362631	0.915668	0.263226
0	H	0.564883	0.665455	0.263292
0	H	0.10897	0.458823	0.263106
0	C	0.643204	0.0400615	0.0724747
0	C	0.984177	0.609689	0.0727754
0	C	0.414893	0.38363	0.0725734
0	C	0.984791	0.381536	0.57483
0	C	0.413429	0.0405282	0.57491
0	C	0.64254	0.609691	0.57489
0	C	0.308531	0.374129	0.405096
0	C	0.648904	0.944651	0.405366
0	C	0.0788136	0.717902	0.405324
0	C	0.649027	0.716208	0.910106
0	C	0.0794168	0.374895	0.909974
0	C	0.308713	0.944292	0.910007
0	C	0.975802	0.710724	0.744042
0	C	0.311341	0.276302	0.74393
0	C	0.748625	0.0472101	0.744183
0	C	0.311639	0.0481236	0.236883
0	C	0.747119	0.712641	0.236689
0	C	0.976138	0.274581	0.236872
0	H	0.597967	0.0243762	0.109014
0	H	0.000480584	0.580113	0.109194
0	H	0.444441	0.429657	0.109001
0	H	0.999633	0.425951	0.611528
0	H	0.442787	0.0254901	0.61159
0	H	0.597664	0.580497	0.611518
0	H	0.263704	0.358617	0.441712
0	H	0.664724	0.915562	0.44197
0	H	0.10815	0.762858	0.441941
0	H	0.664364	0.7614	0.946666
0	H	0.108464	0.358194	0.946439
0	H	0.263596	0.914645	0.946581
0	H	0.931014	0.695489	0.780666
0	H	0.326388	0.246802	0.78059
0	H	0.778373	0.0921311	0.780804
0	H	0.326633	0.0931968	0.27344
0	H	0.777188	0.698467	0.273361
0	H	0.931209	0.244603	0.273458
0	C	0.59973	0.0791074	0.0316962
0	C	0.94475	0.527007	0.0319468
0	C	0.498316	0.425655	0.032037
0	C	0.948273	0.426995	0.533921
0	C	0.495359	0.0768657	0.533942
0	C	0.597798	0.526792	0.534146
0	C	0.264411	0.41239	0.364294
0	C	0.610239	0.861604	0.364668
0	C	0.161253	0.763136	0.3645
0	C	0.608853	0.758801	0.869418
0	C	0.163056	0.41653	0.869513
0	C	0.265167	0.86123	0.869311
0	C	0.931728	0.748891	0.703219
0	C	0.273617	0.193809	0.703064
0	C	0.831752	0.0902294	0.70355
0	C	0.272514	0.0912245	0.196014
0	C	0.828657	0.749046	0.195579
0	C	0.932703	0.191806	0.196064
0	C	0.657258	0.096481	0.984809
0	C	0.92623	0.567188	0.985268
0	C	0.457717	0.368259	0.985104
0	C	0.932238	0.370665	0.486787
0	C	0.455396	0.0939588	0.486953
0	C	0.655008	0.566774	0.487149
0	C	0.321429	0.429237	0.317296
0	C	0.592759	0.901417	0.317707
0	C	0.121121	0.706256	0.317442
0	C	0.592841	0.701926	0.822414
0	C	0.123352	0.434787	0.822687
0	C	0.322304	0.901712	0.822322
0	C	0.988904	0.765541	0.656246
0	C	0.256913	0.234162	0.6561
0	C	0.79096	0.0331734	0.65655
0	C	0.257091	0.0343439	0.14905
0	C	0.787406	0.763971	0.14853
0	C	0.989651	0.233083	0.149107
0	H	0.622227	0.123497	0.952692
0	H	0.898483	0.50491	0.953132
0	H	0.52016	0.403107	0.953059
0	H	0.907224	0.407448	0.454638
0	H	0.517283	0.119476	0.454785
0	H	0.619065	0.504198	0.45512
0	H	0.285825	0.45567	0.28519
0	H	0.565661	0.838799	0.285692
0	H	0.18311	0.742966	0.2853
0	H	0.56563	0.736895	0.790336
0	H	0.186295	0.463579	0.790778
0	H	0.287011	0.839291	0.790245
0	H	0.953443	0.79203	0.624126
0	H	0.230418	0.171872	0.623986
0	H	0.853727	0.0679833	0.624593
0	H	0.23065	0.0694969	0.116791
0	H	0.848601	0.788848	0.116151
0	H	0.954638	0.170934	0.116921
0	C	0.758317	0.0780062	0.978526
0	C	0.944688	0.687081	0.979204
0	C	0.33735	0.267553	0.978726
0	C	0.949445	0.268739	0.480396
0	C	0.336434	0.0770765	0.480709
0	C	0.756674	0.686626	0.480697
0	C	0.422655	0.411132	0.310966
0	C	0.611254	0.0211879	0.311229
0	C	0.00187115	0.603767	0.311083
0	C	0.612656	0.601626	0.816034
0	C	0.00345313	0.415335	0.816251
0	C	0.423352	0.0219937	0.815924
0	C	0.0899649	0.747074	0.649986
0	C	0.275432	0.354017	0.64976
0	C	0.670263	0.933155	0.650029
0	C	0.276824	0.93389	0.142841
0	C	0.667775	0.745557	0.142387
0	C	0.0900432	0.353841	0.14279
0	H	0.802359	0.0915299	0.941963
0	H	0.930399	0.717581	0.94275
0	H	0.306593	0.223479	0.942138
0	H	0.936725	0.225295	0.443734
0	H	0.30599	0.0904567	0.444124
0	H	0.800538	0.717109	0.44408
0	H	0.466496	0.42447	0.274365
0	H	0.597704	0.0514169	0.274611
0	H	0.971476	0.559839	0.274462
0	H	0.599483	0.557589	0.779467
0	H	0.973329	0.429879	0.779777
0	H	0.467381	0.0526863	0.779355
0	H	0.133752	0.760163	0.613386
0	H	0.262361	0.384689	0.613158
0	H	0.639377	0.889351	0.613424
0	H	0.264506	0.890358	0.106195
0	H	0.636513	0.757158	0.105658
0	H	0.133528	0.385008	0.106125
0	C	0.49357	0.101221	0.0383685
0	C	0.923532	0.398588	0.0382035
0	C	0.62827	0.529831	0.0388523
0	C	0.926655	0.533718	0.540375
0	C	0.623035	0.0967734	0.54024
0	C	0.49058	0.398156	0.540631
0	C	0.15848	0.434964	0.370828
0	C	0.588499	0.733023	0.371157
0	C	0.289904	0.87001	0.371063
0	C	0.583574	0.863091	0.876033
0	C	0.292265	0.44101	0.876331
0	C	0.159339	0.731944	0.875979
0	C	0.825937	0.771699	0.709758
0	C	0.251969	0.0652558	0.709522
0	C	0.961387	0.195321	0.710157
0	C	0.247777	0.195913	0.202541
0	C	0.957224	0.771487	0.202055
0	C	0.827414	0.0621345	0.202677
0	H	0.51101	0.189433	0.0215608
0	H	0.835348	0.327079	0.0215792
0	H	0.697294	0.509064	0.0228314
0	H	0.836147	0.513901	0.525359
0	H	0.695072	0.186385	0.524698
0	H	0.509387	0.326707	0.52566
0	H	0.177809	0.524771	0.355016
0	H	0.498044	0.661501	0.356121
0	H	0.360655	0.851537	0.355193
0	H	0.495037	0.843461	0.858999
0	H	0.362396	0.530794	0.860241
0	H	0.176374	0.661639	0.85857
0	H	0.846546	0.862752	0.694881
0	H	0.161636	0.993726	0.694453
0	H	0.0309325	0.174468	0.694757
0	H	0.156917	0.174305	0.187302
0	H	0.0282009	0.862026	0.186821
0	H	0.847492	0.992091	0.187156
0	H	0.470888	0.104673	0.0778979
0	H	0.921076	0.37206	0.0776234
0	H	0.653938	0.553401	0.0783705
0	H	0.928571	0.560438	0.579714
0	H	0.648218	0.0958001	0.579599
0	H	0.463641	0.373494	0.579967
0	H	0.133651	0.435515	0.410266
0	H	0.590354	0.708298	0.410515
0	H	0.315434	0.89494	0.410495
0	H	0.578974	0.885241	0.915531
0	H	0.317712	0.442997	0.915868
0	H	0.137651	0.704969	0.915494
0	H	0.799518	0.769798	0.749146
0	H	0.25373	0.0405401	0.748909
0	H	0.986645	0.220862	0.74957
0	H	0.248238	0.221562	0.241952
0	H	0.982159	0.770533	0.241466
0	H	0.802211	0.0367997	0.242113
0	H	0.40753	0.0264509	0.0210602
0	H	0.998188	0.388414	0.0204082
0	H	0.643149	0.616434	0.0208185
0	H	0.998226	0.618208	0.520968
0	H	0.633603	0.0235303	0.521264
0	H	0.406605	0.385765	0.521186
0	H	0.0731385	0.362226	0.352299
0	H	0.660189	0.72074	0.351869
0	H	0.302197	0.955101	0.352531
0	H	0.657026	0.950216	0.85879
0	H	0.305743	0.368489	0.858351
0	H	0.0728795	0.720214	0.859162
0	H	0.741115	0.700566	0.690394
0	H	0.323859	0.0530684	0.690318
0	H	0.975954	0.280935	0.691276
0	H	0.318713	0.281626	0.1836
0	H	0.969817	0.699431	0.18313
0	H	0.741894	0.0481806	0.18405
