#******************************************
#
# CIF file created by Zeo++
# Zeo++ is an open source package to
# analyze microporous materials
#
#*******************************************

_cell_length_a		30.3928(0)
_cell_length_b		31.0896(0)
_cell_length_c		8.47084(0)
_cell_angle_alpha		90(0)
_cell_angle_beta		90(0)
_cell_angle_gamma		122.301(0)

_symmetry_space_group_name_H-M		'P1'
_symmetry_Int_Tables_number		1
_symmetry_cell_setting		Monoclinic

loop_
_symmetry_equiv_pos_as_xyz
'+x,+y,+z'

loop_
_atom_site_label
_atom_site_type_symbol
_atom_site_fract_x
_atom_site_fract_y
_atom_site_fract_z
0	S	0.226161	0.52727	0.00205067
0	S	0.641379	0.73738	0.0307096
0	S	0.419413	0.952708	0.049054
0	S	0.963714	0.610688	0.559593
0	S	0.546735	0.399242	0.52861
0	S	0.770219	0.184998	0.51172
0	S	0.887821	0.870222	0.337612
0	S	0.294146	0.0685998	0.327601
0	S	0.104626	0.267198	0.314915
0	S	0.624797	0.924155	0.906748
0	S	0.225296	0.753499	0.92194
0	S	0.423942	0.529269	0.894314
0	S	0.565032	0.213951	0.652036
0	S	0.96432	0.384496	0.639754
0	S	0.765402	0.607984	0.66463
0	S	0.301563	0.267294	0.223071
0	S	0.896745	0.0697452	0.231914
0	S	0.0854561	0.870722	0.246005
0	O	0.203689	0.634792	0.127335
0	O	0.54541	0.595868	0.152769
0	O	0.555701	0.977672	0.159304
0	O	0.987519	0.504144	0.432529
0	O	0.643603	0.540389	0.406082
0	O	0.634105	0.159967	0.399215
0	O	0.836633	0.952448	0.504324
0	O	0.199903	0.936818	0.525527
0	O	0.242038	0.320262	0.497734
0	O	0.702188	0.860339	0.79999
0	O	0.290732	0.898531	0.837839
0	O	0.277591	0.459683	0.77262
0	O	0.487204	0.27723	0.758921
0	O	0.899559	0.239437	0.721258
0	O	0.91172	0.678785	0.786432
0	O	0.353478	0.185758	0.0557015
0	O	0.990945	0.201411	0.0335293
0	O	0.947778	0.817439	0.0646884
0	H	0.183724	0.669738	0.993324
0	H	0.505624	0.56148	0.99537
0	H	0.588795	0.967742	0.00222664
0	H	0.00550019	0.468201	0.568735
0	H	0.68361	0.574825	0.563603
0	H	0.601316	0.170613	0.556716
0	H	0.839408	0.995803	0.363437
0	H	0.159111	0.892282	0.383544
0	H	0.281865	0.320351	0.347249
0	H	0.700989	0.817345	0.937783
0	H	0.341108	0.940577	0.97172
0	H	0.236941	0.463447	0.916531
0	H	0.486781	0.319516	0.621143
0	H	0.848545	0.197147	0.589068
0	H	0.951959	0.673878	0.645385
0	H	0.351416	0.14258	0.196241
0	H	0.0310681	0.245711	0.176884
0	H	0.907571	0.816997	0.214678
0	O	0.235508	0.592713	0.00963118
0	O	0.57724	0.672834	0.0459632
0	O	0.476064	0.942995	0.0559162
0	O	0.955093	0.545532	0.551463
0	O	0.61109	0.463399	0.513393
0	O	0.713537	0.194579	0.504096
0	O	0.883382	0.92889	0.368428
0	O	0.229794	0.00644865	0.376426
0	O	0.168229	0.270896	0.363828
0	O	0.642882	0.873853	0.903625
0	O	0.27641	0.824609	0.928774
0	O	0.354364	0.514923	0.883261
0	O	0.546617	0.263931	0.655176
0	O	0.913591	0.313371	0.631613
0	O	0.835121	0.62294	0.676055
0	O	0.306464	0.208882	0.192147
0	O	0.961115	0.131825	0.182751
0	O	0.0216625	0.866861	0.198272
0	O	0.21281	0.466456	0.990296
0	O	0.701035	0.792412	0.0133161
0	O	0.371776	0.966184	0.0360965
0	O	0.976312	0.671199	0.571633
0	O	0.486788	0.344571	0.546293
0	O	0.817823	0.171511	0.525121
0	O	0.884755	0.814479	0.305096
0	O	0.353539	0.120112	0.27752
0	O	0.0519473	0.270201	0.264262
0	O	0.612704	0.971819	0.913229
0	O	0.176128	0.690578	0.922224
0	O	0.483788	0.537255	0.907898
0	O	0.577479	0.16653	0.645862
0	O	0.0131166	0.447516	0.64058
0	O	0.705332	0.59941	0.650473
0	O	0.304171	0.322821	0.255339
0	O	0.837342	0.0183235	0.282235
0	O	0.138296	0.867899	0.295844
0	C	0.187614	0.512426	0.178186
0	C	0.66314	0.718298	0.198372
0	C	0.448573	0.99436	0.215772
0	C	0.00206953	0.625895	0.382909
0	C	0.525505	0.418361	0.359753
0	C	0.741511	0.14362	0.344173
0	C	0.854439	0.847262	0.522729
0	C	0.319894	0.0584073	0.504647
0	C	0.117442	0.307279	0.483396
0	C	0.668082	0.953445	0.742061
0	C	0.19745	0.766627	0.756042
0	C	0.408572	0.490112	0.721853
0	C	0.52201	0.1847	0.817302
0	C	0.992456	0.371291	0.804669
0	C	0.780395	0.647375	0.836333
0	C	0.334502	0.29021	0.0373331
0	C	0.871071	0.0797412	0.0543329
0	C	0.072639	0.830961	0.0767272
0	C	0.166151	0.467511	0.262674
0	C	0.710019	0.748453	0.27588
0	C	0.427179	0.0174388	0.297237
0	C	0.0231307	0.670829	0.298714
0	C	0.478658	0.388385	0.281992
0	C	0.763099	0.120722	0.262682
0	C	0.845998	0.804546	0.601573
0	C	0.368683	0.0918297	0.566998
0	C	0.0842037	0.320979	0.542377
0	C	0.675691	0.995205	0.659173
0	C	0.15651	0.730637	0.66473
0	C	0.443319	0.482975	0.638691
0	C	0.514817	0.143163	0.900507
0	C	0.0333537	0.407298	0.896075
0	C	0.745323	0.654135	0.919058
0	C	0.342372	0.332684	0.95832
0	C	0.822299	0.0462664	0.992027
0	C	0.105956	0.817519	0.0166504
0	H	0.174081	0.438206	0.229661
0	H	0.736419	0.78847	0.24337
0	H	0.388475	0.00954387	0.267009
0	H	0.0150412	0.699956	0.332687
0	H	0.451937	0.348473	0.314937
0	H	0.801744	0.128566	0.293441
0	H	0.862165	0.782725	0.557142
0	H	0.394781	0.129052	0.512615
0	H	0.0456334	0.305834	0.490566
0	H	0.653194	0.0124318	0.686817
0	H	0.139009	0.689914	0.685954
0	H	0.484613	0.503549	0.670797
0	H	0.537461	0.126115	0.872638
0	H	0.0506335	0.44801	0.875299
0	H	0.704023	0.633211	0.886939
0	H	0.325989	0.354279	0.00310071
0	H	0.796212	0.00905797	0.0465224
0	H	0.144568	0.832709	0.0682527
0	C	0.133748	0.460541	0.391534
0	C	0.722995	0.726013	0.396732
0	C	0.456758	0.0515442	0.419237
0	C	0.0553326	0.678044	0.169034
0	C	0.466142	0.410865	0.160072
0	C	0.733811	0.0868519	0.139889
0	C	0.815768	0.789844	0.740242
0	C	0.383779	0.0764839	0.702211
0	C	0.101472	0.354892	0.670988
0	C	0.713442	0.0150908	0.538434
0	C	0.137805	0.747912	0.54386
0	C	0.424006	0.448302	0.511871
0	C	0.477268	0.123235	0.0218046
0	C	0.0522652	0.390023	0.0163195
0	C	0.764343	0.688915	0.0456149
0	C	0.372303	0.347444	0.819042
0	C	0.807182	0.0615129	0.856631
0	C	0.0886767	0.783803	0.887553
0	H	0.11642	0.425397	0.460005
0	H	0.759786	0.749172	0.459764
0	H	0.440573	0.0700504	0.48562
0	H	0.0722	0.713148	0.100526
0	H	0.429376	0.387849	0.096903
0	H	0.750169	0.0685316	0.0733603
0	H	0.809086	0.756572	0.805666
0	H	0.421869	0.102483	0.754831
0	H	0.0756733	0.365738	0.721173
0	H	0.719936	0.0479243	0.470803
0	H	0.105761	0.720102	0.469458
0	H	0.450908	0.442604	0.443128
0	H	0.471208	0.0906157	0.0897054
0	H	0.0842821	0.417828	0.090805
0	H	0.737179	0.694343	0.113908
0	H	0.378492	0.380501	0.753398
0	H	0.769119	0.0354415	0.803988
0	H	0.114511	0.773135	0.836518
0	C	0.123662	0.497954	0.432301
0	C	0.689709	0.674821	0.435402
0	C	0.506248	0.0618611	0.455609
0	C	0.0657349	0.640903	0.127428
0	C	0.49989	0.461889	0.120363
0	C	0.684363	0.0765259	0.102786
0	C	0.794475	0.817258	0.794137
0	C	0.350721	0.0287583	0.769515
0	C	0.150824	0.374352	0.735297
0	C	0.742534	0.993526	0.505421
0	C	0.159556	0.799785	0.519157
0	C	0.37123	0.421374	0.47381
0	C	0.447899	0.144493	0.0549399
0	C	0.0307464	0.338155	0.0402753
0	C	0.817112	0.716275	0.0838485
0	C	0.393904	0.320339	0.764881
0	C	0.840198	0.109225	0.789194
0	C	0.039229	0.764257	0.823848
0	H	0.0975416	0.491484	0.531398
0	H	0.700334	0.657413	0.528828
0	H	0.529376	0.0894128	0.548887
0	H	0.0917654	0.647583	0.0278484
0	H	0.489589	0.479315	0.0261663
0	H	0.66145	0.0491454	0.00890488
0	H	0.770062	0.804947	0.900768
0	H	0.363145	0.0168892	0.873853
0	H	0.164104	0.401175	0.834711
0	H	0.772353	0.00962306	0.412183
0	H	0.144567	0.81301	0.42508
0	H	0.356383	0.393798	0.376162
0	H	0.418214	0.128317	0.148571
0	H	0.0459336	0.324934	0.133793
0	H	0.831696	0.743926	0.18131
0	H	0.418124	0.332734	0.657842
0	H	0.827716	0.121044	0.684899
0	H	0.0259358	0.737584	0.724039
0	C	0.146401	0.543747	0.34663
0	C	0.642164	0.644543	0.355304
0	C	0.527363	0.037827	0.372263
0	C	0.0434588	0.595113	0.212938
0	C	0.547457	0.491986	0.200562
0	C	0.66304	0.100357	0.186133
0	C	0.803603	0.860827	0.713031
0	C	0.301143	0.995116	0.704791
0	C	0.184309	0.360177	0.673726
0	C	0.734459	0.951059	0.591015
0	C	0.201005	0.836073	0.613739
0	C	0.336241	0.42888	0.559887
0	C	0.455519	0.186723	0.968939
0	C	0.989299	0.301869	0.945705
0	C	0.852416	0.709113	0.9982
0	C	0.385351	0.276997	0.846147
0	C	0.889776	0.142931	0.853844
0	C	0.00563655	0.778128	0.886594
0	H	0.139011	0.57332	0.378956
0	H	0.616582	0.604122	0.384148
0	H	0.566197	0.0460708	0.400496
0	H	0.0510711	0.565722	0.180202
0	H	0.573464	0.532266	0.170811
0	H	0.624288	0.0922146	0.157357
0	H	0.786155	0.881873	0.754444
0	H	0.275427	0.957303	0.75674
0	H	0.223398	0.376279	0.723175
0	H	0.757979	0.93458	0.566347
0	H	0.217416	0.876922	0.595895
0	H	0.2946	0.406916	0.531423
0	H	0.43178	0.202973	0.993617
0	H	0.973036	0.26104	0.963247
0	H	0.894051	0.731425	0.0268509
0	H	0.403065	0.256228	0.804436
0	H	0.915451	0.180733	0.801806
0	H	0.966439	0.761902	0.837778
0	C	0.17853	0.550703	0.219537
0	C	0.62899	0.666907	0.237844
0	C	0.498001	0.00380767	0.252701
0	C	0.0114536	0.587888	0.34065
0	C	0.560085	0.4696	0.319436
0	C	0.692142	0.134163	0.306452
0	C	0.834502	0.876051	0.578413
0	C	0.285904	0.0106331	0.573072
0	C	0.166994	0.326175	0.548204
0	C	0.696629	0.930969	0.70822
0	C	0.220172	0.818997	0.730523
0	C	0.355517	0.463983	0.682592
0	C	0.493202	0.206895	0.851284
0	C	0.969939	0.318921	0.82944
0	C	0.833452	0.673918	0.875767
0	C	0.35468	0.26167	0.981263
0	C	0.905044	0.127476	0.985653
0	C	0.0229933	0.811982	0.0125306
0	C	0.206451	0.59707	0.116382
0	C	0.579822	0.641094	0.143273
0	C	0.51365	0.974208	0.153419
0	C	0.984159	0.541517	0.443955
0	C	0.609003	0.495233	0.415173
0	C	0.676189	0.163501	0.405717
0	C	0.850736	0.922597	0.482349
0	C	0.23442	0.980557	0.491665
0	C	0.19657	0.306093	0.470062
0	C	0.681776	0.885234	0.806741
0	C	0.265496	0.85197	0.835821
0	C	0.324672	0.478413	0.781834
0	C	0.507732	0.252453	0.752358
0	C	0.924658	0.285987	0.723971
0	C	0.86459	0.65972	0.777071
0	C	0.338997	0.215314	0.0777041
0	C	0.956477	0.157628	0.0672463
0	C	0.993307	0.831762	0.0918194
0	C	0.291771	0.555164	0.0772145
0	C	0.609137	0.766964	0.115476
0	C	0.378724	0.890732	0.139389
0	C	0.897916	0.582175	0.485499
0	C	0.578439	0.368894	0.44566
0	C	0.811013	0.247126	0.422256
0	C	0.95573	0.907054	0.394889
0	C	0.266489	0.104288	0.396981
0	C	0.0678072	0.203738	0.398
0	C	0.563538	0.87843	0.812391
0	C	0.273347	0.743815	0.830751
0	C	0.447082	0.592039	0.814608
0	C	0.626319	0.259986	0.745603
0	C	0.916077	0.393582	0.732655
0	C	0.742662	0.545506	0.746038
0	C	0.233567	0.229914	0.167149
0	C	0.92453	0.0340178	0.164054
0	C	0.121956	0.934316	0.164034
0	H	0.293219	0.544483	0.199458
0	H	0.623009	0.782414	0.234142
0	H	0.363692	0.89225	0.255409
0	H	0.896161	0.592327	0.362876
0	H	0.564322	0.353013	0.327574
0	H	0.826203	0.245757	0.306325
0	H	0.962587	0.899871	0.516395
0	H	0.280228	0.120946	0.514547
0	H	0.051188	0.20228	0.514321
0	H	0.556174	0.893893	0.706136
0	H	0.259582	0.722299	0.719889
0	H	0.464833	0.597969	0.697491
0	H	0.634747	0.244012	0.848424
0	H	0.930573	0.416419	0.840945
0	H	0.722853	0.539023	0.859883
0	H	0.22642	0.236154	0.0449459
0	H	0.911414	0.0176872	0.0458909
0	H	0.13795	0.936066	0.0465022
0	H	0.313165	0.596873	0.0701185
0	H	0.566866	0.739739	0.121333
0	H	0.400052	0.871456	0.15212
0	H	0.876773	0.540517	0.494276
0	H	0.620732	0.395816	0.439216
0	H	0.789677	0.266394	0.40944
0	H	0.971375	0.947913	0.382926
0	H	0.223846	0.079853	0.401059
0	H	0.0923768	0.187847	0.409177
0	H	0.562305	0.843594	0.779936
0	H	0.309659	0.78032	0.80683
0	H	0.415158	0.598788	0.806779
0	H	0.626624	0.29393	0.783352
0	H	0.88065	0.356927	0.761607
0	H	0.775086	0.539839	0.761378
0	H	0.218129	0.189182	0.18194
0	H	0.967209	0.058334	0.162059
0	H	0.0973439	0.950235	0.155844
0	H	0.313132	0.542219	0.00526111
0	H	0.6165	0.799453	0.0405827
0	H	0.344215	0.866465	0.0638604
0	H	0.87655	0.595241	0.55686
0	H	0.570894	0.336548	0.521752
0	H	0.845424	0.271357	0.498254
0	H	0.978824	0.897339	0.318055
0	H	0.27725	0.136676	0.316506
0	H	0.0343114	0.178223	0.320467
0	H	0.531233	0.868029	0.894097
0	H	0.282469	0.721709	0.910906
0	H	0.477516	0.621277	0.892312
0	H	0.658368	0.272029	0.661438
0	H	0.905257	0.414047	0.651228
0	H	0.71412	0.515952	0.665129
0	H	0.21052	0.240039	0.242605
0	H	0.913234	0.0014125	0.244124
0	H	0.155888	0.959598	0.240424
