data_MnMOF-1[Rh(CH2CH2)2]Cl(pentane)_[Groups_0_+_1]
_audit_creation_method         'generated by CrystalMaker X for macOS'
_cell_length_a                  12.288000(30)
_cell_length_b                  32.624000(70)
_cell_length_c                  12.928000(30)
_cell_angle_alpha               90.000000(0)
_cell_angle_beta                95.460000(300)
_cell_angle_gamma               90.000000(0)

_symmetry_space_group_name_H-M     'P 21/m'

loop_
_symmetry_equiv_pos_as_xyz
'+x,+y,+z'
'-x,1/2+y,-z'
'-x,-y,-z'
'+x,1/2-y,+z'

loop_
_atom_site_label
_atom_site_type_symbol
_atom_site_occupancy
_atom_site_fract_x
_atom_site_fract_y
_atom_site_fract_z
_atom_site_U_iso_or_equiv
 C1  C 1.0  0.71120000(60000)  0.65150000(20000)  1.27260000(60000)  0.11267
 C13  C 1.0  0.82510000(60000)  0.56890000(30000)  1.15000000(60000)  0.11833
 C14  C 1.0  0.79570000(60000)  0.59230000(30000)  1.06050000(60000)  0.11700
 C15  C 1.0  0.74750000(60000)  0.62580000(30000)  1.09320000(70000)  0.12167
 C16  C 1.0  0.88240000(80000)  0.52930000(30000)  1.16060000(60000)  0.14300
 C17  C 1.0  0.70120000(100000)  0.66040000(30000)  1.03460000(70000)  0.18300
 C21  C 1.0  0.80860000(70000)  0.58070000(30000)  0.95090000(70000)  0.11633
 C22  C 0.621  0.91020000(100000)  0.56690000(40000)  0.92840000(80000)  0.11467
 C23  C 0.621  0.91910000(90000)  0.55780000(40000)  0.82550000(100000)  0.11333
 C24  C 1.0  0.83250000(50000)  0.56220000(30000)  0.74680000(60000)  0.10967
 C25  C 0.621  0.74300000(110000)  0.57770000(70000)  0.77590000(120000)  0.15767
 C26  C 0.621  0.73220000(130000)  0.59010000(50000)  0.87770000(120000)  0.13167
 C27  C 1.0  0.84730000(80000)  0.55060000(30000)  0.63100000(60000)  0.11300
 C33  C 1.0  0.54150000(60000)  0.59140000(30000)  1.41130000(60000)  0.11967
 C34  C 1.0  0.45890000(70000)  0.61680000(30000)  1.36120000(60000)  0.11833
 C35  C 1.0  0.51200000(50000)  0.64480000(30000)  1.30300000(60000)  0.10867
 C36  C 1.0  0.53150000(60000)  0.55640000(30000)  1.48170000(70000)  0.14133
 C37  C 1.0  0.47090000(60000)  0.67790000(30000)  1.23510000(70000)  0.13833
 C41  C 1.0  0.33870000(60000)  0.61350000(30000)  1.36650000(60000)  0.12233
 C42  C 1.0  0.29510000(60000)  0.57420000(30000)  1.34870000(60000)  0.12100
 C43  C 1.0  0.18390000(70000)  0.56840000(30000)  1.36210000(60000)  0.13033
 C44  C 1.0  0.11940000(50000)  0.60040000(30000)  1.38900000(60000)  0.11367
 C45  C 1.0  0.16500000(60000)  0.63720000(30000)  1.40450000(70000)  0.13167
 C46  C 1.0  0.27610000(60000)  0.64440000(30000)  1.39590000(70000)  0.12500
 C47  C 1.0  0.00590000(60000)  0.59380000(40000)  1.40490000(50000)  0.11100
 C51  C 1.0  0.41730000(140000)  0.25000000(0)  0.09330000(120000)  0.17167
 C63  C 1.0  0.41940000(90000)  0.32140000(40000)  0.28830000(110000)  0.15333
 C64  C 1.0  0.50920000(120000)  0.33730000(40000)  0.23940000(110000)  0.17600
 C65  C 1.0  0.51410000(110000)  0.31250000(40000)  0.16480000(90000)  0.15033
 C66  C 1.0  0.39620000(150000)  0.33900000(50000)  0.40150000(160000)  0.25800
 C67  C 1.0  0.59210000(120000)  0.31210000(50000)  0.08200000(120000)  0.21700
 C71  C 1.0  0.58280000(120000)  0.37800000(50000)  0.26260000(100000)  0.18733
 C72  C 1.0  0.54710000(90000)  0.41440000(40000)  0.24610000(90000)  0.16233
 C73  C 1.0  0.61000000(100000)  0.44720000(30000)  0.27910000(80000)  0.14400
 C74  C 1.0  0.70900000(80000)  0.44310000(30000)  0.33070000(60000)  0.11800
 C75  C 1.0  0.75280000(120000)  0.40790000(50000)  0.34150000(100000)  0.19367
 C76  C 1.0  0.68650000(140000)  0.37170000(50000)  0.30420000(150000)  0.23567
 C77  C 1.0  0.77110000(70000)  0.48050000(30000)  0.37480000(50000)  0.11267
 C81  C 1.0  0.10700000(300000)  0.28630000(30000)  0.22000000(200000)  0.50333
 C82  C 1.0  0.12800000(300000)  0.28630000(30000)  0.32200000(200000)  0.50333
 Cl90  Cl 1.0  0.63600000(90000)  0.75000000(0)  1.15220000(70000)  0.30600
 H22  H 0.621  0.96970000(0)  0.56390000(0)  0.98040000(0)  0.13900
 H23  H 0.621  0.98740000(0)  0.54810000(0)  0.80660000(0)  0.13700
 H25  H 0.621  0.68190000(0)  0.58060000(0)  0.72560000(0)  0.19000
 H26  H 0.621  0.66990000(0)  0.60520000(0)  0.89350000(0)  0.16100
 H42  H 1.0  0.33910000(0)  0.55230000(0)  1.32820000(0)  0.14500
 H43  H 1.0  0.15270000(0)  0.54190000(0)  1.35230000(0)  0.15800
 H45  H 1.0  0.12040000(0)  0.65950000(0)  1.42200000(0)  0.15900
 H46  H 1.0  0.30690000(0)  0.67070000(0)  1.41070000(0)  0.15000
 H72  H 1.0  0.47660000(0)  0.41860000(0)  0.21070000(0)  0.20300
 H73  H 1.0  0.58240000(0)  0.47400000(0)  0.26490000(0)  0.17600
 H75  H 1.0  0.82570000(0)  0.40480000(0)  0.37230000(0)  0.24100
 H76  H 1.0  0.71640000(0)  0.34480000(0)  0.30950000(0)  0.29300
 H16A  H 1.0  0.95210000(0)  0.53130000(0)  1.12990000(0)  0.21500
 H16B  H 1.0  0.83710000(0)  0.50800000(0)  1.12460000(0)  0.21500
 H16C  H 1.0  0.89610000(0)  0.52230000(0)  1.23440000(0)  0.21500
 H17A  H 1.0  0.62370000(0)  0.66310000(0)  1.04560000(0)  0.27300
 H17B  H 1.0  0.70850000(0)  0.65610000(0)  0.96060000(0)  0.27300
 H17C  H 1.0  0.74010000(0)  0.68550000(0)  1.05800000(0)  0.27300
 H1A  H 1.0  0.77150000(0)  0.65690000(0)  1.32730000(0)  0.13500
 H1B  H 1.0  0.69130000(0)  0.67790000(0)  1.23800000(0)  0.13500
 H36A  H 1.0  0.50470000(0)  0.53240000(0)  1.44120000(0)  0.21300
 H36B  H 1.0  0.47990000(0)  0.56320000(0)  1.53230000(0)  0.21300
 H36C  H 1.0  0.60310000(0)  0.55020000(0)  1.51820000(0)  0.21300
 H37A  H 1.0  0.50090000(0)  0.70400000(0)  1.26210000(0)  0.20800
 H37B  H 1.0  0.39090000(0)  0.67870000(0)  1.23210000(0)  0.20800
 H37C  H 1.0  0.49300000(0)  0.67330000(0)  1.16520000(0)  0.20800
 H51A  H 1.0  0.34010000(0)  0.25000000(0)  0.06310000(0)  0.21600
 H51B  H 1.0  0.46520000(0)  0.25000000(0)  0.03600000(0)  0.21600
 H66A  H 1.0  0.32580000(0)  0.35340000(0)  0.39600000(0)  0.38600
 H66B  H 1.0  0.45460000(0)  0.35800000(0)  0.42640000(0)  0.38600
 H66C  H 1.0  0.39400000(0)  0.31610000(0)  0.45060000(0)  0.38600
 H67A  H 1.0  0.58000000(0)  0.28730000(0)  0.03950000(0)  0.32600
 H67B  H 1.0  0.66750000(0)  0.31220000(0)  0.11470000(0)  0.32600
 H67C  H 1.0  0.57990000(0)  0.33640000(0)  0.03790000(0)  0.32600
 H81A  H 1.0  0.11850000(0)  0.31240000(0)  0.18330000(0)  0.61200
 H81B  H 1.0  0.04200000(0)  0.27070000(0)  0.19080000(0)  0.61200
 H82A  H 1.0  0.07420000(0)  0.27170000(0)  0.36080000(0)  0.61400
 H82B  H 1.0  0.15000000(0)  0.31300000(0)  0.35340000(0)  0.61400
 Mn1  Mn 1.0  0.79662000(8000)  0.57006000(3000)  0.40437000(7000)  0.09903
 Mn2  Mn 1.0  1.00000000(0)  0.50000000(0)  0.50000000(0)  0.10490
 N11  N 1.0  0.75020000(50000)  0.62360000(20000)  1.19660000(50000)  0.10667
 N12  N 1.0  0.79920000(40000)  0.58860000(20000)  1.23210000(40000)  0.10533
 N31  N 1.0  0.61860000(40000)  0.63631000(19000)  1.32070000(40000)  0.10400
 N32  N 1.0  0.63950000(50000)  0.60369000(19000)  1.38710000(50000)  0.10967
 N61  N 1.0  0.43860000(120000)  0.28460000(30000)  0.15750000(110000)  0.19733
 N62  N 1.0  0.37830000(110000)  0.29010000(50000)  0.25000000(120000)  0.21033
 O28  O 1.0  0.91460000(60000)  0.52620000(20000)  0.61970000(40000)  0.15400
 O29  O 1.0  0.79390000(40000)  0.57290000(18000)  0.56740000(40000)  0.12567
 O48  O 1.0  -0.02990000(40000)  0.55610000(20000)  1.40390000(30000)  0.11433
 O49  O 1.0  -0.06080000(40000)  0.62239000(18000)  1.41430000(40000)  0.11700
 O78  O 1.0  0.72790000(50000)  0.51340000(20000)  0.36260000(40000)  0.12700
 O79  O 1.0  0.86380000(50000)  0.47255000(18000)  0.41630000(50000)  0.14800
 Rh3  Rh 1.0  0.25680000(20000)  0.25000000(0)  0.27690000(30000)  0.31067

loop_
_atom_site_aniso_label
_atom_site_aniso_U_11
_atom_site_aniso_U_22
_atom_site_aniso_U_33
_atom_site_aniso_U_23
_atom_site_aniso_U_13
_atom_site_aniso_U_12
C1   0.10400 0.14300 0.09100 0.01100 0.01400 0.01700
C13   0.10900 0.18200 0.06400 0.02500 -0.00100 0.02900
C14   0.08100 0.17600 0.09400 0.00900 0.00400 0.01700
C15   0.10500 0.17300 0.08700 0.02600 0.01600 0.02600
C16   0.17600 0.17800 0.07500 0.01600 0.01100 0.06100
C17   0.22900 0.21600 0.10400 0.05400 0.02200 0.10100
C21   0.10500 0.15800 0.08600 0.02600 0.00600 0.02400
C22   0.10700 0.19800 0.03900 0.00100 -0.01500 0.01000
C23   0.09800 0.13700 0.10500 0.01900 -0.00200 0.01900
C24   0.06600 0.18700 0.07600 0.00600 -0.01200 0.02200
C25   0.04900 0.33000 0.09400 0.02300 -0.01500 0.01500
C26   0.10700 0.19500 0.09300 -0.00800 -0.02200 0.04200
C27   0.11100 0.14100 0.08700 0.02100 -0.01800 0.00100
C33   0.08600 0.16800 0.10500 0.02200 0.00000 0.01100
C34   0.12000 0.15300 0.08200 0.00800 0.00000 0.00800
C35   0.06900 0.16200 0.09500 0.00100 0.00200 0.02200
C36   0.07300 0.22900 0.12200 0.06500 0.00300 0.00900
C37   0.10500 0.19200 0.11800 0.03800 0.00700 0.02400
C41   0.07500 0.18000 0.11200 0.02500 -0.00400 -0.00900
C42   0.06300 0.19700 0.10300 0.01300 0.00700 0.02100
C43   0.09700 0.20000 0.09400 0.01000 -0.01600 0.00900
C44   0.05200 0.15800 0.13100 0.01200 0.01600 0.00800
C45   0.08300 0.18300 0.12900 0.01500 -0.00100 -0.00600
C46   0.08200 0.16400 0.12900 0.00900 0.00900 0.01700
C47   0.09200 0.17400 0.06700 -0.00400 -0.01600 0.00700
C51   0.22800 0.11700 0.17000 0.00000 -0.11200 0.00000
C63   0.10200 0.18600 0.17200 0.01800 -0.00900 -0.00300
C64   0.18100 0.19800 0.14900 0.00500 -0.06500 0.03600
C65   0.21200 0.14200 0.09700 -0.00300 -0.08300 0.00100
C66   0.28000 0.23400 0.26000 -0.02400 0.02100 -0.02600
C67   0.23400 0.25200 0.16500 0.07900 0.01500 0.05300
C71   0.21200 0.19900 0.15100 -0.03400 -0.08900 0.01200
C72   0.17000 0.14500 0.17200 0.02300 -0.08400 0.00000
C73   0.17300 0.13300 0.12600 0.00600 -0.02000 0.01200
C74   0.14800 0.12100 0.08500 0.00300 -0.03000 0.00200
C75   0.24000 0.17900 0.16200 0.01000 -0.09100 0.02500
C76   0.23800 0.18200 0.28700 -0.01900 -0.10900 0.01800
C77   0.09600 0.17900 0.06300 0.02400 -0.02700 0.00700
C81   0.79000 0.49000 0.23000 -0.11000 -0.06000 0.32000
C82   0.79000 0.47000 0.25000 -0.10000 -0.04000 0.36000
Cl90   0.41900 0.25000 0.24900 0.00000 0.07800 0.00000
Mn1   0.08090 0.14300 0.07320 0.00470 -0.00970 0.00560
Mn2   0.08310 0.15600 0.07560 0.00190 -0.00770 0.01340
N11   0.10000 0.14600 0.07400 0.02000 -0.00300 0.01300
N12   0.09000 0.15300 0.07300 0.01900 0.00000 0.01000
N31   0.07800 0.16000 0.07400 -0.00600 0.01400 0.00700
N32   0.07800 0.15500 0.09600 0.03500 -0.01100 0.01600
N61   0.26000 0.12300 0.20900 0.01000 -0.14900 -0.00600
N62   0.20900 0.23600 0.18600 -0.04200 -0.05600 -0.03400
O28   0.17200 0.18500 0.10500 0.02400 0.03100 0.06300
O29   0.10200 0.18500 0.09000 -0.01000 -0.00800 0.02200
O48   0.08600 0.17900 0.07800 0.00500 -0.01000 0.00600
O49   0.06500 0.16100 0.12500 -0.00300 -0.00800 0.00600
O78   0.11500 0.19100 0.07500 0.00300 -0.01000 0.00400
O79   0.13100 0.15700 0.15600 -0.00700 -0.05000 -0.01300
Rh3   0.22200 0.27700 0.43300 0.00000 -0.01200 0.00000
