data_MnMOF-1[Rh(CH2CH2)2](BF4)(pentane)_[Groups_0_+_1]
_audit_creation_method         'generated by CrystalMaker X for macOS'
_cell_length_a                  12.239000(20)
_cell_length_b                  34.061000(70)
_cell_length_c                  12.913000(30)
_cell_angle_alpha               90.000000(0)
_cell_angle_beta                99.450000(300)
_cell_angle_gamma               90.000000(0)

_symmetry_space_group_name_H-M     'P 21/m'

loop_
_symmetry_equiv_pos_as_xyz
'+x,+y,+z'
'-x,1/2+y,-z'
'-x,-y,-z'
'+x,1/2-y,+z'

loop_
_atom_site_label
_atom_site_type_symbol
_atom_site_occupancy
_atom_site_fract_x
_atom_site_fract_y
_atom_site_fract_z
_atom_site_U_iso_or_equiv
 B85  B 0.777  0.61870000(170000)  0.75000000(0)  0.64900000(110000)  0.10500
 C1  C 1.0  0.30680000(50000)  0.35836000(17000)  0.24870000(40000)  0.06867
 C13  C 1.0  0.18590000(50000)  0.43849000(18000)  0.35750000(40000)  0.07067
 C14  C 1.0  0.22330000(50000)  0.41881000(19000)  0.45170000(50000)  0.07467
 C15  C 1.0  0.27970000(50000)  0.38630000(20000)  0.42210000(40000)  0.07700
 C16  C 1.0  0.11960000(60000)  0.47540000(20000)  0.34130000(50000)  0.09300
 C17  C 1.0  0.34720000(80000)  0.35620000(30000)  0.49100000(60000)  0.12200
 C21  C 1.0  0.20290000(50000)  0.42774000(19000)  0.55730000(40000)  0.06967
 C22  C 1.0  0.20500000(70000)  0.46550000(30000)  0.59420000(60000)  0.10300
 C23  C 1.0  0.18540000(60000)  0.47280000(20000)  0.69660000(50000)  0.08333
 C24  C 1.0  0.16970000(50000)  0.44322000(18000)  0.76220000(40000)  0.06900
 C25  C 1.0  0.17000000(70000)  0.40540000(30000)  0.72600000(60000)  0.10100
 C26  C 1.0  0.18360000(80000)  0.39770000(20000)  0.62370000(60000)  0.10733
 C27  C 1.0  0.15640000(50000)  0.45084000(19000)  0.87260000(50000)  0.07233
 C33  C 1.0  0.46350000(50000)  0.41300000(20000)  0.10160000(50000)  0.07700
 C34  C 1.0  0.55290000(50000)  0.38894000(19000)  0.15230000(50000)  0.07367
 C35  C 1.0  0.50180000(50000)  0.36337000(18000)  0.21040000(50000)  0.07300
 C36  C 1.0  0.46970000(60000)  0.44680000(20000)  0.02800000(60000)  0.09500
 C37  C 1.0  0.55260000(60000)  0.33100000(20000)  0.28430000(60000)  0.09067
 C41  C 1.0  0.66890000(50000)  0.39180000(20000)  0.14050000(50000)  0.08067
 C42  C 1.0  0.73100000(50000)  0.36020000(20000)  0.11780000(60000)  0.08667
 C43  C 1.0  0.84170000(50000)  0.36580000(20000)  0.10200000(50000)  0.08033
 C44  C 1.0  0.88760000(50000)  0.40190000(20000)  0.11230000(50000)  0.07533
 C45  C 1.0  0.82560000(50000)  0.43400000(20000)  0.13930000(50000)  0.07933
 C46  C 1.0  0.71900000(50000)  0.42840000(20000)  0.15360000(50000)  0.07967
 C47  C 1.0  1.00370000(50000)  0.40910000(20000)  0.09580000(40000)  0.07200
 C51  C 1.0  0.58570000(110000)  0.75000000(0)  0.37790000(100000)  0.10933
 C63  C 1.0  0.58170000(80000)  0.67490000(20000)  0.18570000(80000)  0.11200
 C64  C 1.0  0.49300000(80000)  0.66140000(20000)  0.24090000(60000)  0.09700
 C65  C 1.0  0.48490000(70000)  0.68840000(20000)  0.31700000(60000)  0.09433
 C66  C 1.0  0.61870000(80000)  0.65800000(20000)  0.09810000(80000)  0.11967
 C67  C 1.0  0.40520000(70000)  0.68910000(20000)  0.39310000(60000)  0.10000
 C71  C 1.0  0.42760000(60000)  0.62510000(20000)  0.21550000(50000)  0.08900
 C72  C 1.0  0.31540000(80000)  0.62780000(20000)  0.18000000(70000)  0.11167
 C73  C 1.0  0.24950000(70000)  0.59480000(20000)  0.15360000(60000)  0.10000
 C74  C 1.0  0.30060000(60000)  0.55803000(19000)  0.16360000(50000)  0.07933
 C75  C 1.0  0.41290000(70000)  0.55590000(20000)  0.20130000(60000)  0.09200
 C76  C 1.0  0.47700000(70000)  0.58790000(20000)  0.22800000(60000)  0.09567
 C77  C 1.0  0.23130000(60000)  0.52250000(18000)  0.13020000(40000)  0.07367
 C81  C 1.0  0.85400000(200000)  0.79240000(80000)  0.30900000(200000)  0.30667
 C82  C 1.0  0.86010000(90000)  0.79230000(30000)  0.19920000(160000)  0.18100
 F86  F 0.777  0.51350000(170000)  0.75000000(0)  0.60120000(120000)  0.23700
 F87  F 1.0  0.66660000(130000)  0.71930000(20000)  0.61320000(80000)  0.27433
 F88  F 1.0  0.61800000(200000)  0.75000000(0)  0.74820000(110000)  0.33967
 H1A  H 1.0  0.33250000(0)  0.33450000(0)  0.28930000(0)  0.08100
 H1B  H 1.0  0.24250000(0)  0.35090000(0)  0.19530000(0)  0.08100
 H22  H 1.0  0.21960000(0)  0.48670000(0)  0.55060000(0)  0.12200
 H23  H 1.0  0.18320000(0)  0.49910000(0)  0.72030000(0)  0.10100
 H25  H 1.0  0.16070000(0)  0.38420000(0)  0.77160000(0)  0.12100
 H26  H 1.0  0.17960000(0)  0.37150000(0)  0.59880000(0)  0.12800
 H42  H 1.0  0.69950000(0)  0.33460000(0)  0.11270000(0)  0.10300
 H43  H 1.0  0.88380000(0)  0.34410000(0)  0.08410000(0)  0.09600
 H45  H 1.0  0.85800000(0)  0.45940000(0)  0.14740000(0)  0.09600
 H46  H 1.0  0.67800000(0)  0.45010000(0)  0.17310000(0)  0.09500
 H72  H 1.0  0.28190000(0)  0.65300000(0)  0.17320000(0)  0.14100
 H73  H 1.0  0.17220000(0)  0.59720000(0)  0.12960000(0)  0.12500
 H75  H 1.0  0.44680000(0)  0.53080000(0)  0.20890000(0)  0.11000
 H76  H 1.0  0.55370000(0)  0.58520000(0)  0.25470000(0)  0.11700
 H16A  H 1.0  0.16970000(0)  0.49800000(0)  0.34610000(0)  0.13800
 H16B  H 1.0  0.07240000(0)  0.47750000(0)  0.39550000(0)  0.13800
 H16C  H 1.0  0.07320000(0)  0.47490000(0)  0.27190000(0)  0.13800
 H17A  H 1.0  0.31910000(0)  0.32990000(0)  0.47110000(0)  0.18200
 H17B  H 1.0  0.34130000(0)  0.36120000(0)  0.56460000(0)  0.18200
 H17C  H 1.0  0.42500000(0)  0.35800000(0)  0.48190000(0)  0.18200
 H36A  H 1.0  0.40460000(0)  0.44650000(0)  -0.02740000(0)  0.14000
 H36B  H 1.0  0.53690000(0)  0.44450000(0)  -0.00350000(0)  0.14000
 H36C  H 1.0  0.47160000(0)  0.47160000(0)  0.06700000(0)  0.14000
 H37A  H 1.0  0.54870000(0)  0.33850000(0)  0.35690000(0)  0.13600
 H37B  H 1.0  0.63010000(0)  0.32720000(0)  0.27640000(0)  0.13600
 H37C  H 1.0  0.51160000(0)  0.30650000(0)  0.26720000(0)  0.13600
 H51A  H 1.0  0.54070000(0)  0.75000000(0)  0.43500000(0)  0.13700
 H51B  H 1.0  0.66480000(0)  0.75000000(0)  0.41030000(0)  0.13700
 H66A  H 1.0  0.65980000(0)  0.67760000(0)  0.06440000(0)  0.18100
 H66B  H 1.0  0.55490000(0)  0.64890000(0)  0.04790000(0)  0.18100
 H66C  H 1.0  0.66730000(0)  0.63570000(0)  0.12100000(0)  0.18100
 H67A  H 1.0  0.44110000(0)  0.70090000(0)  0.45920000(0)  0.15500
 H67B  H 1.0  0.38220000(0)  0.66230000(0)  0.40610000(0)  0.15500
 H67C  H 1.0  0.34010000(0)  0.70470000(0)  0.36380000(0)  0.15500
 H81A  H 1.0  0.81960000(0)  0.81560000(0)  0.33720000(0)  0.37400
 H81B  H 1.0  0.91900000(0)  0.78190000(0)  0.35740000(0)  0.37400
 H82A  H 1.0  0.93010000(0)  0.78260000(0)  0.17960000(0)  0.21000
 H82B  H 1.0  0.83120000(0)  0.81600000(0)  0.15940000(0)  0.21000
 Mn1  Mn 1.0  0.20982000(6000)  0.43434000(2000)  0.10444000(6000)  0.06200
 Mn2  Mn 1.0  0.00000000(0)  0.50000000(0)  0.00000000(0)  0.06667
 N11  N 1.0  0.27200000(40000)  0.38747000(14000)  0.31900000(30000)  0.06800
 N12  N 1.0  0.21380000(40000)  0.41900000(15000)  0.27680000(30000)  0.07033
 N31  N 1.0  0.39280000(40000)  0.37243000(14000)  0.19750000(30000)  0.06533
 N32  N 1.0  0.36990000(40000)  0.40294000(14000)  0.13030000(30000)  0.06800
 N61  N 1.0  0.56130000(60000)  0.71488000(17000)  0.31410000(60000)  0.09533
 N62  N 1.0  0.62360000(70000)  0.70759000(18000)  0.23920000(70000)  0.10900
 O28  O 1.0  0.10280000(40000)  0.47968000(14000)  0.89120000(30000)  0.09300
 O29  O 1.0  0.20140000(40000)  0.42709000(14000)  0.94150000(30000)  0.08133
 O48  O 1.0  1.03440000(30000)  0.44504000(13000)  0.09290000(30000)  0.06933
 O49  O 1.0  1.06870000(30000)  0.38171000(13000)  0.09210000(30000)  0.07733
 O78  O 1.0  0.27960000(40000)  0.48978000(12000)  0.13890000(30000)  0.07600
 O79  O 1.0  0.13190000(40000)  0.52799000(13000)  0.09630000(30000)  0.08333
 Rh3  Rh 1.0  0.74396000(10000)  0.75000000(0)  0.21960000(11000)  0.12917

loop_
_atom_site_aniso_label
_atom_site_aniso_U_11
_atom_site_aniso_U_22
_atom_site_aniso_U_33
_atom_site_aniso_U_23
_atom_site_aniso_U_13
_atom_site_aniso_U_12
B85   0.20000 0.06400 0.05100 0.00000 -0.04200 0.00000
C1   0.07200 0.07900 0.05500 0.00600 0.02200 0.00300
C13   0.07500 0.09000 0.04700 0.00000 0.00800 0.00800
C14   0.07100 0.09300 0.06000 0.00100 0.01100 0.01200
C15   0.07400 0.10400 0.05300 0.01500 0.01300 0.01700
C16   0.11700 0.10200 0.06000 0.00700 0.02600 0.02900
C17   0.14400 0.14000 0.08200 0.02500 0.02300 0.06100
C21   0.07300 0.09600 0.04000 0.00700 0.01300 0.01300
C22   0.11200 0.11300 0.08400 0.01500 0.02700 0.00300
C23   0.08700 0.10500 0.05800 -0.00300 0.00300 0.00700
C24   0.05800 0.08600 0.06300 0.00500 0.01300 0.00700
C25   0.12100 0.11200 0.07000 0.00800 0.01500 0.00300
C26   0.15700 0.09800 0.06700 -0.00300 0.02400 0.01600
C27   0.06900 0.08800 0.06000 0.00500 0.01200 0.00600
C33   0.05600 0.10700 0.06800 0.00400 0.02100 0.00400
C34   0.06000 0.09800 0.06300 0.00100 0.01000 0.00300
C35   0.06900 0.08300 0.06700 0.00000 0.00800 0.00300
C36   0.07900 0.11900 0.08700 0.02700 0.02500 0.01700
C37   0.07600 0.09700 0.09900 0.02300 0.01600 0.01800
C41   0.07600 0.10000 0.06600 0.00600 0.02500 0.01000
C42   0.06400 0.09400 0.10200 0.00200 0.02000 0.00400
C43   0.06000 0.09300 0.08800 -0.00100 0.01600 0.00200
C44   0.06000 0.09500 0.07100 0.00200 0.01600 0.00800
C45   0.06400 0.09400 0.08000 0.00300 0.00700 0.00400
C46   0.05600 0.10500 0.07800 0.00700 0.01300 0.01100
C47   0.07000 0.08700 0.05900 0.00400 0.00700 0.00800
C51   0.13800 0.07700 0.11300 0.00000 -0.02200 0.00000
C63   0.12500 0.06900 0.14200 0.00000 -0.02500 -0.00100
C64   0.13600 0.07400 0.08100 0.00300 -0.01000 0.00100
C65   0.11700 0.07700 0.08900 0.00100 -0.02500 0.00100
C66   0.13700 0.08300 0.13900 -0.02100 0.01400 -0.00300
C67   0.11300 0.09900 0.08800 -0.00800 -0.01100 0.00200
C71   0.09800 0.08800 0.08100 0.00200 -0.01500 -0.00200
C72   0.14900 0.08400 0.10200 -0.00700 -0.02600 0.00600
C73   0.10900 0.08600 0.10500 -0.00100 -0.02200 -0.00100
C74   0.09500 0.07900 0.06400 -0.00200 0.01200 0.00300
C75   0.11700 0.07500 0.08400 0.00000 0.01800 -0.00500
C76   0.11500 0.08100 0.09100 -0.00300 -0.00100 -0.01100
C77   0.09300 0.07300 0.05500 0.00300 0.00500 -0.00400
C81   0.25000 0.44000 0.23000 -0.12000 0.01400 -0.01000
C82   0.10400 0.08900 0.35000 0.00700 0.07900 0.00500
F86   0.36000 0.24100 0.11000 0.00000 0.04400 0.00000
F87   0.49000 0.12200 0.21100 0.04200 0.08400 0.02500
F88   0.46000 0.45000 0.10900 0.00000 0.01900 0.00000
Mn1   0.05450 0.08250 0.04900 0.00200 0.00910 0.00400
Mn2   0.06070 0.08900 0.05030 0.00140 0.00830 0.00990
N11   0.06500 0.08200 0.05700 0.01100 0.01800 0.01400
N12   0.07700 0.08200 0.05200 0.00500 0.01500 0.00700
N31   0.05500 0.08300 0.05800 0.00500 0.01300 0.00700
N32   0.05900 0.09100 0.05400 0.00900 0.01000 0.00600
N61   0.12000 0.07700 0.08900 0.00000 -0.01700 -0.00500
N62   0.13100 0.07400 0.12200 0.00100 -0.01000 -0.00500
O28   0.10800 0.10000 0.07100 0.01200 0.02600 0.03100
O29   0.07700 0.11000 0.05700 0.00300 0.01390 0.01800
O48   0.05700 0.09400 0.05700 0.00740 0.01360 0.00710
O49   0.06500 0.09100 0.07600 -0.00100 0.01240 0.00400
O78   0.08200 0.07600 0.07000 0.00510 0.01300 -0.00800
O79   0.08200 0.09100 0.07700 -0.00200 -0.00300 0.00400
Rh3   0.12650 0.08070 0.18030 0.00000 0.00800 0.00000
