data_test_sqd_[Groups_0_+_2]
_audit_creation_method         'generated by CrystalMaker X for macOS'
_cell_length_a                  12.453000(30)
_cell_length_b                  33.266000(70)
_cell_length_c                  25.637000(50)
_cell_angle_alpha               90.000000(0)
_cell_angle_beta                96.440000(300)
_cell_angle_gamma               90.000000(0)

_symmetry_space_group_name_H-M     'P 21/c'

loop_
_symmetry_equiv_pos_as_xyz
'+x,+y,+z'
'-x,1/2+y,1/2-z'
'-x,-y,-z'
'+x,1/2-y,1/2+z'

loop_
_atom_site_label
_atom_site_type_symbol
_atom_site_occupancy
_atom_site_fract_x
_atom_site_fract_y
_atom_site_fract_z
_atom_site_U_iso_or_equiv
 C60  C 1.0  1.38940000(100000)  0.25090000(40000)  0.35230000(70000)  0.12000
 C61  C 1.0  1.34990000(120000)  0.25440000(40000)  0.29960000(70000)  0.13833
 C62  C 1.0  1.39000000(110000)  0.29390000(40000)  0.27850000(70000)  0.12900
 C63  C 1.0  1.31670000(100000)  0.32060000(40000)  0.30450000(60000)  0.11867
 C64  C 1.0  1.34440000(80000)  0.32020000(30000)  0.35980000(60000)  0.10300
 C65  C 1.0  1.44350000(100000)  0.28910000(40000)  0.36030000(70000)  0.13200
 C66  C 1.0  1.48680000(110000)  0.29840000(40000)  0.31040000(70000)  0.13633
 C13A  C 1.0  0.97350000(50000)  0.41659000(18000)  0.19020000(20000)  0.04267
 C13B  C 1.0  0.88800000(50000)  0.58810000(20000)  0.29320000(30000)  0.05000
 C13C  C 1.0  1.03570000(70000)  0.33760000(20000)  0.33780000(30000)  0.06333
 C14A  C 1.0  0.89350000(50000)  0.39244000(18000)  0.16640000(30000)  0.04467
 C14B  C 1.0  0.97490000(50000)  0.61150000(20000)  0.31650000(20000)  0.04533
 C14C  C 1.0  0.95890000(60000)  0.35120000(20000)  0.37110000(30000)  0.05333
 C15A  C 1.0  0.94790000(50000)  0.36565000(19000)  0.13650000(20000)  0.04333
 C15B  C 1.0  0.92920000(50000)  0.64193000(18000)  0.34440000(30000)  0.04333
 C15C  C 1.0  0.97180000(60000)  0.32632000(19000)  0.41570000(30000)  0.04933
 C16A  C 1.0  0.96540000(50000)  0.45150000(20000)  0.22780000(30000)  0.05267
 C16B  C 1.0  0.88990000(70000)  0.55180000(30000)  0.26090000(40000)  0.08000
 C16C  C 1.0  1.05240000(90000)  0.35260000(30000)  0.28680000(40000)  0.08600
 C17A  C 1.0  0.90470000(60000)  0.33290000(20000)  0.09990000(40000)  0.06767
 C17B  C 1.0  0.98110000(60000)  0.67400000(20000)  0.37840000(30000)  0.06367
 C17C  C 1.0  0.91030000(70000)  0.32550000(20000)  0.46240000(30000)  0.06400
 C1A  C 1.0  1.14360000(50000)  0.35826000(19000)  0.12220000(20000)  0.04300
 C1B  C 1.0  0.73410000(50000)  0.65387000(18000)  0.36200000(20000)  0.04100
 C1C  C 1.0  1.09230000(70000)  0.26592000(19000)  0.43730000(30000)  0.05567
 C21A  C 1.0  0.77790000(50000)  0.39437000(19000)  0.17090000(20000)  0.04500
 C21B  C 1.0  1.09040000(50000)  0.60730000(20000)  0.31040000(30000)  0.04467
 C21C  C 1.0  0.87610000(60000)  0.38390000(20000)  0.35900000(30000)  0.05300
 C22A  C 1.0  0.71780000(50000)  0.36052000(19000)  0.18320000(30000)  0.04900
 C22B  C 1.0  1.15350000(60000)  0.63970000(20000)  0.29990000(30000)  0.05333
 C22C  C 1.0  0.89700000(70000)  0.42110000(20000)  0.38100000(30000)  0.06233
 C23A  C 1.0  0.60830000(50000)  0.36480000(20000)  0.18960000(30000)  0.04933
 C23B  C 1.0  1.26480000(50000)  0.63510000(20000)  0.29620000(20000)  0.04600
 C23C  C 1.0  0.82780000(50000)  0.45330000(20000)  0.36640000(30000)  0.05067
 C24A  C 1.0  0.55920000(50000)  0.40230000(20000)  0.18420000(30000)  0.05067
 C24B  C 1.0  1.31270000(50000)  0.59701000(19000)  0.30170000(20000)  0.04267
 C24C  C 1.0  0.73830000(50000)  0.44766000(18000)  0.33000000(20000)  0.04300
 C25A  C 1.0  0.61690000(50000)  0.43480000(20000)  0.17050000(30000)  0.05133
 C25B  C 1.0  1.24620000(50000)  0.56330000(20000)  0.31230000(30000)  0.04867
 C25C  C 1.0  0.72120000(70000)  0.40890000(20000)  0.30860000(40000)  0.07100
 C26A  C 1.0  0.72230000(60000)  0.43160000(20000)  0.16310000(30000)  0.05133
 C26B  C 1.0  1.13840000(50000)  0.56920000(20000)  0.31800000(30000)  0.05133
 C26C  C 1.0  0.78900000(80000)  0.37810000(20000)  0.32360000(40000)  0.08200
 C27A  C 1.0  0.44370000(50000)  0.40840000(20000)  0.19320000(30000)  0.04600
 C27B  C 1.0  1.42500000(50000)  0.59128000(19000)  0.29710000(20000)  0.04467
 C27C  C 1.0  0.66530000(50000)  0.48201000(19000)  0.31060000(20000)  0.04167
 C33A  C 1.0  1.27780000(50000)  0.43740000(19000)  0.06660000(20000)  0.04433
 C33B  C 1.0  0.63130000(50000)  0.57326000(18000)  0.43040000(20000)  0.04433
 C33C  C 1.0  1.10450000(80000)  0.18800000(20000)  0.34360000(40000)  0.07300
 C34A  C 1.0  1.25640000(50000)  0.41250000(20000)  0.02010000(20000)  0.04633
 C34B  C 1.0  0.68020000(50000)  0.59479000(19000)  0.47410000(20000)  0.04467
 C34C  C 1.0  1.02070000(80000)  0.17380000(20000)  0.36760000(30000)  0.06600
 C35A  C 1.0  1.19930000(50000)  0.38100000(20000)  0.03520000(20000)  0.05367
 C35B  C 1.0  0.72330000(50000)  0.62926000(19000)  0.45390000(20000)  0.04500
 C35C  C 1.0  0.99900000(60000)  0.20140000(20000)  0.40580000(30000)  0.05267
 C36A  C 1.0  1.34180000(60000)  0.47560000(20000)  0.07500000(30000)  0.05767
 C36B  C 1.0  0.57840000(60000)  0.53330000(20000)  0.42830000(30000)  0.05633
 C36C  C 1.0  1.15590000(100000)  0.17050000(30000)  0.30190000(40000)  0.09700
 C37A  C 1.0  1.14950000(80000)  0.34620000(40000)  0.00390000(30000)  0.10033
 C37B  C 1.0  0.78060000(70000)  0.66290000(20000)  0.48120000(30000)  0.06467
 C37C  C 1.0  0.91580000(70000)  0.20240000(20000)  0.44120000(30000)  0.06600
 C41A  C 1.0  1.29160000(60000)  0.42040000(20000)  -0.03170000(30000)  0.05567
 C41B  C 1.0  0.68960000(50000)  0.58398000(19000)  0.53040000(20000)  0.04500
 C41C  C 1.0  0.95930000(60000)  0.13620000(20000)  0.35570000(30000)  0.05600
 C42A  C 1.0  1.29390000(80000)  0.45760000(30000)  -0.05190000(30000)  0.07800
 C42B  C 1.0  0.60230000(60000)  0.56780000(20000)  0.55290000(30000)  0.05667
 C42C  C 1.0  1.00990000(80000)  0.09840000(20000)  0.35730000(40000)  0.07367
 C43A  C 1.0  1.33190000(70000)  0.46450000(30000)  -0.10080000(30000)  0.07200
 C43B  C 1.0  0.61190000(50000)  0.55690000(20000)  0.60590000(20000)  0.04767
 C43C  C 1.0  0.95370000(60000)  0.06400000(20000)  0.34920000(30000)  0.06067
 C44A  C 1.0  1.36290000(60000)  0.43590000(20000)  -0.12990000(20000)  0.05433
 C44B  C 1.0  0.70530000(50000)  0.56279000(19000)  0.63700000(20000)  0.04333
 C44C  C 1.0  0.84000000(60000)  0.06441000(19000)  0.33420000(20000)  0.04800
 C45A  C 1.0  1.35680000(70000)  0.39450000(30000)  -0.11150000(30000)  0.07133
 C45B  C 1.0  0.79310000(60000)  0.57860000(20000)  0.61610000(20000)  0.05633
 C45C  C 1.0  0.78860000(70000)  0.10160000(20000)  0.33330000(30000)  0.06433
 C46A  C 1.0  1.32770000(80000)  0.38730000(30000)  -0.06230000(30000)  0.07267
 C46B  C 1.0  0.78380000(50000)  0.58830000(20000)  0.56180000(20000)  0.05500
 C46C  C 1.0  0.84360000(80000)  0.13690000(20000)  0.34430000(30000)  0.06833
 C47A  C 1.0  1.40080000(60000)  0.44270000(20000)  -0.18260000(30000)  0.05700
 C47B  C 1.0  0.71020000(50000)  0.55270000(18000)  0.69400000(20000)  0.04200
 C47C  C 1.0  0.77890000(60000)  0.02681000(19000)  0.32020000(30000)  0.05200
 Cl1B  Cl 0.366  1.22070000(100000)  0.24520000(20000)  0.62270000(40000)  0.12467
 H60  H 1.0  1.41240000(0)  0.22520000(0)  0.37060000(0)  0.14200
 H61  H 1.0  1.33860000(0)  0.23010000(0)  0.27660000(0)  0.16200
 H62  H 1.0  1.39100000(0)  0.29660000(0)  0.23970000(0)  0.15100
 H63  H 1.0  1.27970000(0)  0.34410000(0)  0.28590000(0)  0.13800
 H64  H 1.0  1.33970000(0)  0.34340000(0)  0.38420000(0)  0.12000
 H65  H 1.0  1.49750000(0)  0.29060000(0)  0.39220000(0)  0.15600
 H16A  H 1.0  1.03790000(0)  0.45900000(0)  0.24360000(0)  0.07700
 H16B  H 1.0  0.92150000(0)  0.44350000(0)  0.25540000(0)  0.07700
 H16C  H 1.0  0.93160000(0)  0.47450000(0)  0.20850000(0)  0.07700
 H16D  H 1.0  0.86850000(0)  0.52850000(0)  0.28080000(0)  0.11700
 H16E  H 1.0  0.96310000(0)  0.54760000(0)  0.25130000(0)  0.11700
 H16F  H 1.0  0.83950000(0)  0.55500000(0)  0.22900000(0)  0.11700
 H16G  H 1.0  1.10540000(0)  0.37450000(0)  0.29060000(0)  0.12600
 H16H  H 1.0  0.98390000(0)  0.36270000(0)  0.26910000(0)  0.12600
 H16I  H 1.0  1.07940000(0)  0.33090000(0)  0.26600000(0)  0.12600
 H17A  H 1.0  0.96180000(0)  0.32370000(0)  0.07930000(0)  0.10100
 H17B  H 1.0  0.84380000(0)  0.34330000(0)  0.07610000(0)  0.10100
 H17C  H 1.0  0.88020000(0)  0.31040000(0)  0.12020000(0)  0.10100
 H17D  H 1.0  0.96280000(0)  0.70030000(0)  0.36250000(0)  0.09400
 H17E  H 1.0  1.05970000(0)  0.67040000(0)  0.38200000(0)  0.09400
 H17F  H 1.0  0.95530000(0)  0.67260000(0)  0.41300000(0)  0.09400
 H17G  H 1.0  0.83700000(0)  0.31550000(0)  0.45200000(0)  0.09500
 H17H  H 1.0  0.90650000(0)  0.35280000(0)  0.47660000(0)  0.09500
 H17I  H 1.0  0.94700000(0)  0.30780000(0)  0.48930000(0)  0.09500
 H1AA  H 1.0  1.12060000(0)  0.33330000(0)  0.10300000(0)  0.05100
 H1AB  H 1.0  1.19960000(0)  0.35090000(0)  0.15110000(0)  0.05100
 H1BA  H 1.0  0.75920000(0)  0.67960000(0)  0.37850000(0)  0.04900
 H1BB  H 1.0  0.67200000(0)  0.65970000(0)  0.33550000(0)  0.04900
 H1CA  H 1.0  1.17030000(0)  0.26880000(0)  0.44920000(0)  0.06900
 H1CB  H 1.0  1.05330000(0)  0.26320000(0)  0.46870000(0)  0.06900
 H22A  H 1.0  0.75140000(0)  0.33490000(0)  0.18720000(0)  0.05800
 H22B  H 1.0  1.12150000(0)  0.66560000(0)  0.29520000(0)  0.06400
 H22C  H 1.0  0.95830000(0)  0.42500000(0)  0.40610000(0)  0.07500
 H23A  H 1.0  0.56740000(0)  0.34200000(0)  0.19770000(0)  0.05900
 H23B  H 1.0  1.30750000(0)  0.65790000(0)  0.28980000(0)  0.05500
 H23C  H 1.0  0.84220000(0)  0.47910000(0)  0.38140000(0)  0.06200
 H25A  H 1.0  0.58220000(0)  0.46020000(0)  0.16600000(0)  0.06100
 H25B  H 1.0  1.27630000(0)  0.53700000(0)  0.31530000(0)  0.05700
 H25C  H 1.0  0.66100000(0)  0.40420000(0)  0.28320000(0)  0.08900
 H26A  H 1.0  0.75980000(0)  0.45450000(0)  0.15250000(0)  0.06100
 H26B  H 1.0  1.09590000(0)  0.54720000(0)  0.32730000(0)  0.06100
 H26C  H 1.0  0.77510000(0)  0.35210000(0)  0.30890000(0)  0.10300
 H36A  H 1.0  1.30150000(0)  0.49780000(0)  0.05680000(0)  0.08500
 H36B  H 1.0  1.41140000(0)  0.47250000(0)  0.06110000(0)  0.08500
 H36C  H 1.0  1.35410000(0)  0.48150000(0)  0.11270000(0)  0.08500
 H36D  H 1.0  0.50310000(0)  0.53630000(0)  0.43530000(0)  0.08600
 H36E  H 1.0  0.61660000(0)  0.51560000(0)  0.45480000(0)  0.08600
 H36F  H 1.0  0.58060000(0)  0.52150000(0)  0.39340000(0)  0.08600
 H36G  H 1.0  1.16000000(0)  0.19040000(0)  0.27400000(0)  0.14300
 H36H  H 1.0  1.11390000(0)  0.14730000(0)  0.28770000(0)  0.14300
 H36I  H 1.0  1.22900000(0)  0.16180000(0)  0.31530000(0)  0.14300
 H37A  H 1.0  1.13620000(0)  0.35380000(0)  -0.03320000(0)  0.14800
 H37B  H 1.0  1.08100000(0)  0.33890000(0)  0.01680000(0)  0.14800
 H37C  H 1.0  1.19890000(0)  0.32320000(0)  0.00760000(0)  0.14800
 H37D  H 1.0  0.85840000(0)  0.65730000(0)  0.48570000(0)  0.09600
 H37E  H 1.0  0.75510000(0)  0.66650000(0)  0.51570000(0)  0.09600
 H37F  H 1.0  0.76690000(0)  0.68750000(0)  0.46050000(0)  0.09600
 H37G  H 1.0  0.94050000(0)  0.21880000(0)  0.47200000(0)  0.10000
 H37H  H 1.0  0.90110000(0)  0.17500000(0)  0.45250000(0)  0.10000
 H37I  H 1.0  0.84950000(0)  0.21410000(0)  0.42310000(0)  0.10000
 H42A  H 1.0  1.26950000(0)  0.47970000(0)  -0.03280000(0)  0.09300
 H42B  H 1.0  0.53520000(0)  0.56420000(0)  0.53190000(0)  0.06800
 H42C  H 1.0  1.08630000(0)  0.09710000(0)  0.36450000(0)  0.08900
 H43A  H 1.0  1.33490000(0)  0.49140000(0)  -0.11310000(0)  0.08500
 H43B  H 1.0  0.55200000(0)  0.54520000(0)  0.62020000(0)  0.05700
 H43C  H 1.0  0.99050000(0)  0.03900000(0)  0.35350000(0)  0.07300
 H45A  H 1.0  1.37290000(0)  0.37280000(0)  -0.13340000(0)  0.08500
 H45B  H 1.0  0.85920000(0)  0.58300000(0)  0.63770000(0)  0.06600
 H45C  H 1.0  0.71240000(0)  0.10260000(0)  0.32480000(0)  0.07900
 H46A  H 1.0  1.33110000(0)  0.36080000(0)  -0.04830000(0)  0.08500
 H46B  H 1.0  0.84550000(0)  0.59810000(0)  0.54720000(0)  0.06500
 H46C  H 1.0  0.80550000(0)  0.16160000(0)  0.34440000(0)  0.08500
 H66A  H 1.0  1.51580000(0)  0.32610000(0)  0.30960000(0)  0.16000
 H66B  H 1.0  1.54220000(0)  0.27880000(0)  0.30200000(0)  0.16000
 Mn1  Mn 1.0  0.23257000(7000)  0.43668000(2000)  0.19217000(3000)  0.03323
 Mn2  Mn 1.0  0.63398000(7000)  0.57316000(3000)  0.30023000(3000)  0.03673
 Mn3  Mn 1.0  0.44611000(7000)  0.50123000(3000)  0.24219000(3000)  0.03707
 N11A  N 1.0  1.05310000(40000)  0.37525000(13000)  0.14381000(18000)  0.03633
 N11B  N 1.0  0.82110000(40000)  0.63581000(15000)  0.33648000(18000)  0.03700
 N11C  N 1.0  1.05380000(40000)  0.30147000(16000)  0.40770000(20000)  0.04567
 N12A  N 1.0  1.07070000(40000)  0.40616000(14000)  0.17763000(19000)  0.03933
 N12B  N 1.0  0.79470000(40000)  0.60223000(16000)  0.30580000(19000)  0.04067
 N12C  N 1.0  1.09310000(50000)  0.30785000(17000)  0.36150000(20000)  0.05400
 N31A  N 1.0  1.18960000(40000)  0.38530000(15000)  0.08712000(18000)  0.04267
 N31B  N 1.0  0.70030000(40000)  0.62733000(14000)  0.40143000(18000)  0.03900
 N31C  N 1.0  1.07480000(50000)  0.23040000(17000)  0.40500000(30000)  0.05667
 N32A  N 1.0  1.23840000(40000)  0.41890000(15000)  0.10698000(18000)  0.03967
 N32B  N 1.0  0.64450000(40000)  0.59350000(15000)  0.38638000(19000)  0.04300
 N32C  N 1.0  1.14160000(70000)  0.22358000(19000)  0.36690000(30000)  0.07000
 O28A  O 1.0  0.37940000(30000)  0.37701000(14000)  0.19341000(19000)  0.05333
 O28B  O 1.0  1.46360000(30000)  0.55460000(13000)  0.29559000(15000)  0.03943
 O28C  O 1.0  0.69890000(40000)  0.51661000(14000)  0.32051000(19000)  0.04967
 O29A  O 1.0  0.40600000(30000)  0.44313000(14000)  0.19664000(16000)  0.04433
 O29B  O 1.0  1.48910000(40000)  0.62074000(15000)  0.29670000(20000)  0.05633
 O29C  O 1.0  0.57440000(40000)  0.47256000(15000)  0.28720000(20000)  0.05800
 O48A  O 1.0  1.37520000(50000)  0.41670000(20000)  -0.21830000(17000)  0.08533
 O48B  O 1.0  0.65430000(40000)  0.52324000(14000)  0.70525000(17000)  0.05433
 O48C  O 1.0  0.67950000(40000)  0.02991000(15000)  0.30476000(19000)  0.05667
 O49A  O 1.0  1.45230000(50000)  0.47425000(15000)  -0.18930000(20000)  0.07400
 O49B  O 1.0  0.77360000(30000)  0.57136000(13000)  0.72642000(15000)  0.04297
 O49C  O 1.0  0.83220000(40000)  -0.00592000(13000)  0.32512000(18000)  0.04833
 Rh4  Rh 1.0  1.22747000(7000)  0.27502000(2000)  0.34355000(4000)  0.08870

loop_
_atom_site_aniso_label
_atom_site_aniso_U_11
_atom_site_aniso_U_22
_atom_site_aniso_U_33
_atom_site_aniso_U_23
_atom_site_aniso_U_13
_atom_site_aniso_U_12
C60   0.08100 0.08100 0.19800 -0.00500 0.04000 0.00300
C61   0.12000 0.10000 0.19500 -0.01700 0.05700 0.00500
C62   0.10700 0.10500 0.17500 -0.01600 0.06400 0.01200
C63   0.09400 0.09200 0.17000 -0.01100 0.06700 -0.00600
C64   0.07400 0.06600 0.16900 -0.00200 0.05300 -0.01700
C65   0.09200 0.10500 0.19900 -0.00900 0.05100 -0.01300
C66   0.10000 0.11000 0.19900 -0.01000 0.06000 0.01100
C13A   0.04400 0.04200 0.04200 -0.00900 0.01400 -0.00700
C13B   0.03700 0.06300 0.05000 -0.00900 0.01300 -0.00500
C13C   0.07200 0.05500 0.06300 0.01000 -0.00300 -0.02600
C14A   0.04100 0.04000 0.05300 -0.00500 0.01500 0.00000
C14B   0.03600 0.06100 0.03900 -0.00300 0.01000 0.00000
C14C   0.05500 0.05100 0.05400 0.00900 -0.00300 0.00300
C15A   0.03500 0.04900 0.04600 -0.01200 0.01300 -0.00300
C15B   0.03500 0.04500 0.05000 -0.00300 0.01100 -0.00400
C15C   0.06100 0.04000 0.04700 0.00700 -0.00100 -0.00500
C16A   0.04300 0.05200 0.06300 -0.02100 0.02100 -0.00300
C16B   0.05800 0.09400 0.08800 -0.04700 0.03800 -0.02100
C16C   0.11700 0.06100 0.08000 0.00400 0.02900 -0.03700
C17A   0.04100 0.07000 0.09200 -0.04100 0.00900 -0.01200
C17B   0.05700 0.06000 0.07400 -0.02200 0.02400 -0.01300
C17C   0.06700 0.05600 0.06900 0.01200 0.02100 0.00900
C1A   0.03600 0.04700 0.04600 -0.01200 0.01600 -0.00400
C1B   0.04500 0.03800 0.04000 0.00200 0.01100 0.00000
C1C   0.07000 0.03500 0.06200 -0.00400 -0.01200 -0.00100
C21A   0.03800 0.04900 0.04800 -0.01300 0.01400 -0.00400
C21B   0.03300 0.05100 0.05000 0.00400 0.00900 0.00300
C21C   0.06500 0.04100 0.05300 0.01200 -0.00700 -0.00100
C22A   0.04300 0.03800 0.06600 -0.00200 0.01600 -0.00500
C22B   0.04900 0.04500 0.06600 -0.00400 0.01300 -0.00200
C22C   0.05900 0.06700 0.06100 -0.00600 0.00300 0.00100
C23A   0.03700 0.04800 0.06300 0.00000 0.00800 -0.00300
C23B   0.03700 0.05200 0.04900 0.01000 0.01200 0.00500
C23C   0.04800 0.04900 0.05500 -0.00700 -0.01100 0.00400
C24A   0.04700 0.04900 0.05600 0.00200 0.01800 -0.00300
C24B   0.04200 0.04600 0.04000 -0.00300 0.00400 -0.00500
C24C   0.04800 0.03700 0.04400 0.00600 0.00300 0.00200
C25A   0.04700 0.05600 0.05100 0.00000 0.01500 0.00000
C25B   0.03800 0.05500 0.05300 -0.00100 0.01600 0.00100
C25C   0.07000 0.05000 0.09300 0.00100 -0.03300 -0.00800
C26A   0.05400 0.04500 0.05500 0.00000 0.01700 -0.00600
C26B   0.03200 0.05100 0.07100 -0.01200 0.01200 -0.00900
C26C   0.10200 0.04200 0.10200 0.00300 -0.04500 -0.00900
C27A   0.02900 0.05700 0.05200 0.00800 0.00600 -0.00500
C27B   0.04600 0.04600 0.04200 0.00300 0.00200 -0.00800
C27C   0.04200 0.05300 0.03000 -0.00600 -0.00300 0.00400
C33A   0.05500 0.04900 0.02900 -0.00400 0.00600 -0.00100
C33B   0.05700 0.04500 0.03100 0.00100 0.00800 -0.00800
C33C   0.08900 0.05400 0.07600 -0.00500 0.00300 -0.02000
C34A   0.04500 0.06400 0.03000 -0.00100 0.00700 -0.00400
C34B   0.05300 0.04800 0.03300 0.00000 0.02000 -0.00900
C34C   0.09600 0.03800 0.06400 -0.00400 -0.00500 -0.00100
C35A   0.05000 0.07800 0.03300 -0.02100 0.01700 -0.01300
C35B   0.06100 0.04500 0.02900 -0.00400 0.01200 -0.00400
C35C   0.06300 0.04300 0.05200 0.00900 -0.01000 -0.00300
C36A   0.07000 0.06000 0.04300 0.00200 0.01700 -0.01300
C36B   0.07100 0.06200 0.03600 0.00000 -0.00300 -0.02500
C36C   0.14200 0.04700 0.10200 -0.01700 0.04000 -0.02100
C37A   0.09700 0.15300 0.05100 -0.05500 0.03600 -0.06600
C37B   0.08200 0.07300 0.03900 -0.00800 0.01500 -0.03000
C37C   0.06800 0.06200 0.06800 0.01500 0.00100 0.01000
C41A   0.05900 0.07300 0.03500 0.00100 0.01100 -0.00600
C41B   0.05300 0.05100 0.03100 -0.00500 0.00800 -0.00700
C41C   0.06800 0.04100 0.05900 -0.00100 0.00200 -0.01000
C42A   0.09800 0.09500 0.04100 -0.00800 0.01900 0.00800
C42B   0.05200 0.07600 0.04200 -0.02100 0.00900 -0.02100
C42C   0.07100 0.05100 0.09900 -0.02200 0.00500 0.00400
C43A   0.08600 0.07600 0.05400 0.00800 0.02600 -0.00200
C43B   0.03500 0.06700 0.04100 -0.00100 0.00800 -0.01800
C43C   0.06000 0.05000 0.07200 -0.00500 0.00800 0.00100
C44A   0.04700 0.08200 0.03400 0.01100 0.01000 0.00400
C44B   0.04600 0.05300 0.03100 -0.00700 0.00900 -0.01000
C44C   0.06000 0.04400 0.04000 -0.00800 0.00000 -0.00400
C45A   0.07900 0.08500 0.05000 -0.00400 0.01300 -0.02400
C45B   0.05300 0.08400 0.03200 0.00000 0.01400 -0.01500
C45C   0.07800 0.04800 0.06700 -0.00500 -0.01700 -0.00700
C46A   0.10100 0.06400 0.05300 -0.01100 0.02600 -0.00800
C46B   0.04300 0.08300 0.03900 -0.00100 0.02000 -0.01500
C46C   0.09600 0.04400 0.06500 -0.00800 -0.03100 0.00700
C47A   0.05200 0.07400 0.04500 0.00400 0.01900 0.00100
C47B   0.05000 0.04200 0.03400 0.00200 0.01300 0.00200
C47C   0.07300 0.04200 0.04100 -0.00500 0.02100 -0.00900
Cl1B   0.17800 0.05400 0.14200 0.00800 -0.03200 -0.00900
Mn1   0.03430 0.03660 0.02880 -0.00100 0.00680 -0.00150
Mn2   0.03390 0.04900 0.02730 -0.00280 0.00400 -0.00180
Mn3   0.03470 0.04570 0.03080 0.00070 0.00540 -0.00340
N11A   0.03500 0.03400 0.04000 -0.00600 0.01100 0.00110
N11B   0.03200 0.04300 0.03600 -0.00190 0.00560 -0.00400
N11C   0.04900 0.04300 0.04500 0.00400 -0.00100 0.00500
N12A   0.04300 0.03800 0.03700 -0.00920 0.01000 -0.00400
N12B   0.03000 0.05400 0.03800 -0.00500 0.00740 0.00500
N12C   0.05500 0.04600 0.06100 -0.00200 0.01000 -0.00800
N31A   0.05200 0.04800 0.02800 -0.00600 0.01700 -0.00200
N31B   0.04900 0.03900 0.02900 -0.00430 0.00990 0.00000
N31C   0.06000 0.04100 0.06900 -0.00300 0.00700 0.00200
N32A   0.04000 0.04500 0.03400 -0.00400 0.01510 -0.00500
N32B   0.05200 0.04400 0.03300 -0.00500 0.00800 -0.00800
N32C   0.09800 0.04700 0.06500 -0.00600 -0.01100 -0.00100
O28A   0.04000 0.05600 0.06400 0.00800 0.01800 -0.00100
O28B   0.03330 0.04900 0.03600 -0.00040 0.00590 0.00270
O28C   0.04300 0.04900 0.05700 -0.01000 -0.00200 0.00200
O29A   0.03900 0.05600 0.03800 -0.01300 0.00330 0.00520
O29B   0.03600 0.06000 0.07300 0.01200 0.00700 -0.00300
O29C   0.05400 0.05600 0.06400 -0.00200 -0.01500 0.00600
O48A   0.09300 0.14200 0.02100 -0.00700 0.00800 -0.06600
O48B   0.06700 0.05600 0.04000 0.00170 0.02500 -0.01300
O48C   0.05900 0.06400 0.04700 0.00400 -0.01000 -0.00300
O49A   0.11600 0.05200 0.05400 -0.00900 0.03900 -0.02400
O49B   0.04400 0.05600 0.02890 0.00260 0.00550 -0.00310
O49C   0.05600 0.04100 0.04800 0.00200 0.00400 -0.00400
Rh4   0.08170 0.05730 0.12710 -0.01770 0.04580 -0.01140
