data_test_[Groups_0_+_1]
_audit_creation_method         'generated by CrystalMaker X for macOS'
_cell_length_a                  12.462000(30)
_cell_length_b                  34.572000(70)
_cell_length_c                  25.460000(50)
_cell_angle_alpha               90.000000(0)
_cell_angle_beta                98.630000(300)
_cell_angle_gamma               90.000000(0)

_symmetry_space_group_name_H-M     'P 21/c'

loop_
_symmetry_equiv_pos_as_xyz
'+x,+y,+z'
'-x,1/2+y,1/2-z'
'-x,-y,-z'
'+x,1/2-y,1/2+z'

loop_
_atom_site_label
_atom_site_type_symbol
_atom_site_occupancy
_atom_site_fract_x
_atom_site_fract_y
_atom_site_fract_z
_atom_site_U_iso_or_equiv
 B60  B 1.0  0.35140000(60000)  0.76416000(16000)  -0.08650000(30000)  0.05200
 C50  C 1.0  0.15440000(40000)  0.67982000(13000)  0.16900000(20000)  0.03967
 C51  C 1.0  0.20630000(40000)  0.67312000(13000)  0.21978000(19000)  0.03967
 C52  C 1.0  0.15100000(40000)  0.70005000(16000)  0.25620000(20000)  0.04767
 C53  C 1.0  0.19180000(40000)  0.73930000(14000)  0.23940000(20000)  0.04500
 C54  C 1.0  0.13970000(40000)  0.74596000(14000)  0.18830000(20000)  0.04767
 C55  C 1.0  0.06680000(40000)  0.71095000(15000)  0.17370000(20000)  0.04667
 C56  C 1.0  0.03460000(40000)  0.70013000(17000)  0.22790000(30000)  0.05567
 C13A  C 1.0  0.87110000(30000)  0.42580000(10000)  0.06588000(12000)  0.02247
 C13B  C 1.0  0.55340000(30000)  0.57106000(10000)  0.31838000(13000)  0.02113
 C13C  C 1.0  0.47400000(30000)  0.65640000(10000)  0.17554000(14000)  0.02633
 C14A  C 1.0  0.82420000(30000)  0.40378000(10000)  0.02149000(13000)  0.02300
 C14B  C 1.0  0.63490000(30000)  0.59454000(10000)  0.34653000(13000)  0.02233
 C14C  C 1.0  0.54650000(30000)  0.64630000(10000)  0.13984000(14000)  0.02477
 C15A  C 1.0  0.78100000(30000)  0.37114000(10000)  0.04222000(12000)  0.02263
 C15B  C 1.0  0.58210000(30000)  0.61873000(10000)  0.37758000(13000)  0.02193
 C15C  C 1.0  0.52300000(30000)  0.67078000(10000)  0.09671000(14000)  0.02387
 C16A  C 1.0  0.92950000(30000)  0.46366000(12000)  0.06693000(14000)  0.03210
 C16B  C 1.0  0.56370000(30000)  0.54038000(12000)  0.27812000(15000)  0.02973
 C16C  C 1.0  0.46960000(30000)  0.64008000(12000)  0.22934000(15000)  0.03277
 C17A  C 1.0  0.72370000(30000)  0.33696000(12000)  0.01534000(14000)  0.03183
 C17B  C 1.0  0.62450000(30000)  0.64948000(12000)  0.41662000(17000)  0.03307
 C17C  C 1.0  0.57740000(30000)  0.67526000(12000)  0.04894000(15000)  0.03207
 C1A  C 1.0  0.76340000(30000)  0.35134000(10000)  0.13630000(12000)  0.02120
 C1B  C 1.0  0.38400000(30000)  0.62440000(10000)  0.38989000(13000)  0.02267
 C1C  C 1.0  0.39280000(30000)  0.72796000(10000)  0.08078000(14000)  0.02550
 C21A  C 1.0  0.81510000(30000)  0.41387000(11000)  -0.03505000(13000)  0.02550
 C21B  C 1.0  0.75240000(30000)  0.59228000(10000)  0.34319000(13000)  0.02337
 C21C  C 1.0  0.62750000(30000)  0.61499000(11000)  0.14842000(14000)  0.02647
 C22A  C 1.0  0.71550000(30000)  0.40907000(12000)  -0.06873000(13000)  0.02800
 C22B  C 1.0  0.80550000(30000)  0.55683000(11000)  0.35049000(14000)  0.02640
 C22C  C 1.0  0.71490000(30000)  0.61751000(11000)  0.18975000(16000)  0.03017
 C23A  C 1.0  0.70480000(30000)  0.41971000(12000)  -0.12185000(13000)  0.02780
 C23B  C 1.0  0.91450000(30000)  0.55330000(10000)  0.34397000(14000)  0.02500
 C23C  C 1.0  0.78570000(30000)  0.58664000(12000)  0.20087000(16000)  0.03043
 C24A  C 1.0  0.79230000(30000)  0.43638000(11000)  -0.14189000(13000)  0.02483
 C24B  C 1.0  0.97100000(30000)  0.58532000(10000)  0.33005000(13000)  0.02260
 C24C  C 1.0  0.76790000(30000)  0.55237000(10000)  0.17225000(13000)  0.02377
 C25A  C 1.0  0.89060000(30000)  0.44161000(13000)  -0.10865000(14000)  0.03027
 C25B  C 1.0  0.91990000(30000)  0.62144000(10000)  0.32499000(14000)  0.02500
 C25C  C 1.0  0.68280000(30000)  0.54993000(11000)  0.13047000(14000)  0.02767
 C26A  C 1.0  0.90220000(30000)  0.43004000(13000)  -0.05608000(14000)  0.03060
 C26B  C 1.0  0.81130000(30000)  0.62484000(10000)  0.33121000(14000)  0.02517
 C26C  C 1.0  0.61340000(30000)  0.58103000(12000)  0.11834000(15000)  0.02857
 C27A  C 1.0  0.78160000(30000)  0.45063000(10000)  -0.19800000(13000)  0.02493
 C27B  C 1.0  1.08700000(30000)  0.58082000(10000)  0.31960000(13000)  0.02260
 C27C  C 1.0  0.83820000(30000)  0.51807000(11000)  0.18895000(13000)  0.02307
 C33A  C 1.0  0.60140000(30000)  0.41847000(10000)  0.19116000(13000)  0.02337
 C33B  C 1.0  0.25120000(30000)  0.54544000(10000)  0.43859000(12000)  0.02240
 C33C  C 1.0  0.41950000(30000)  0.79797000(11000)  0.18249000(15000)  0.02967
 C34A  C 1.0  0.51640000(30000)  0.39310000(10000)  0.17014000(13000)  0.02307
 C34B  C 1.0  0.26870000(30000)  0.56716000(11000)  0.48620000(13000)  0.02457
 C34C  C 1.0  0.49170000(30000)  0.81487000(10000)  0.15114000(15000)  0.02747
 C35A  C 1.0  0.56590000(30000)  0.36291000(10000)  0.14705000(13000)  0.02210
 C35B  C 1.0  0.32860000(30000)  0.59909000(11000)  0.47525000(14000)  0.02660
 C35C  C 1.0  0.49320000(30000)  0.79028000(10000)  0.10807000(15000)  0.02730
 C36A  C 1.0  0.59440000(30000)  0.45642000(11000)  0.21792000(15000)  0.02797
 C36B  C 1.0  0.19590000(40000)  0.50722000(12000)  0.42874000(14000)  0.03213
 C36C  C 1.0  0.39190000(40000)  0.81140000(13000)  0.23453000(17000)  0.03753
 C37A  C 1.0  0.51800000(30000)  0.32865000(11000)  0.11718000(15000)  0.02793
 C37C  C 1.0  0.55580000(30000)  0.79249000(11000)  0.06257000(16000)  0.03217
 C41A  C 1.0  0.39960000(30000)  0.39734000(11000)  0.17474000(13000)  0.02383
 C41B  C 1.0  0.22670000(30000)  0.55956000(11000)  0.53625000(13000)  0.02557
 C41C  C 1.0  0.54820000(30000)  0.85247000(11000)  0.16045000(15000)  0.02683
 C42A  C 1.0  0.34850000(30000)  0.43340000(11000)  0.16632000(14000)  0.02663
 C42B  C 1.0  0.29560000(30000)  0.56208000(13000)  0.58501000(14000)  0.03063
 C42C  C 1.0  0.66030000(30000)  0.85618000(11000)  0.16220000(16000)  0.03080
 C43A  C 1.0  0.24110000(30000)  0.43819000(11000)  0.17440000(14000)  0.02490
 C43B  C 1.0  0.25260000(30000)  0.55954000(12000)  0.63220000(14000)  0.02897
 C43C  C 1.0  0.70940000(30000)  0.89187000(11000)  0.17110000(16000)  0.02910
 C44A  C 1.0  0.18430000(30000)  0.40695000(11000)  0.19157000(13000)  0.02347
 C44B  C 1.0  0.14360000(30000)  0.55346000(11000)  0.63213000(13000)  0.02383
 C44C  C 1.0  0.64860000(30000)  0.92506000(10000)  0.17666000(13000)  0.02280
 C45A  C 1.0  0.23340000(30000)  0.37100000(11000)  0.19829000(15000)  0.02760
 C45B  C 1.0  0.07540000(30000)  0.54849000(13000)  0.58389000(14000)  0.03127
 C45C  C 1.0  0.53610000(30000)  0.92154000(10000)  0.17415000(14000)  0.02490
 C46A  C 1.0  0.34100000(30000)  0.36623000(11000)  0.19055000(15000)  0.02717
 C46B  C 1.0  0.11630000(30000)  0.55249000(13000)  0.53655000(14000)  0.03293
 C46C  C 1.0  0.48690000(30000)  0.88546000(10000)  0.16725000(15000)  0.02677
 C47A  C 1.0  0.07030000(30000)  0.41312000(10000)  0.20126000(12000)  0.02120
 C47B  C 1.0  0.09880000(30000)  0.55097000(10000)  0.68366000(12000)  0.02227
 C47C  C 1.0  0.70250000(30000)  0.96350000(10000)  0.18661000(12000)  0.02170
 F61  F 1.0  0.41040000(40000)  0.74269000(10000)  -0.04515000(13000)  0.06817
 F62  F 1.0  0.28540000(30000)  0.73986000(9000)  -0.11923000(16000)  0.06343
 F63  F 1.0  0.29080000(50000)  0.79250000(15000)  -0.06610000(30000)  0.11800
 F64  F 1.0  0.42310000(40000)  0.78251000(13000)  -0.11430000(20000)  0.08900
 H50  H 1.0  0.14640000(0)  0.65970000(0)  0.14050000(0)  0.04700
 H51  H 1.0  0.24030000(0)  0.64780000(0)  0.23170000(0)  0.04700
 H52  H 1.0  0.16260000(0)  0.69400000(0)  0.29500000(0)  0.05600
 H53  H 1.0  0.21620000(0)  0.76050000(0)  0.26520000(0)  0.05200
 H54  H 1.0  0.12210000(0)  0.77250000(0)  0.17370000(0)  0.05500
 H55  H 1.0  0.00700000(0)  0.71380000(0)  0.14310000(0)  0.05600
 H16A  H 1.0  0.92050000(0)  0.47770000(0)  0.09940000(0)  0.04700
 H16B  H 1.0  0.89940000(0)  0.47900000(0)  0.03580000(0)  0.04700
 H16D  H 1.0  0.57990000(0)  0.51550000(0)  0.29620000(0)  0.04400
 H16E  H 1.0  0.62260000(0)  0.54710000(0)  0.25820000(0)  0.04400
 H16F  H 1.0  0.49540000(0)  0.53830000(0)  0.25360000(0)  0.04400
 H16G  H 1.0  0.44860000(0)  0.66040000(0)  0.25260000(0)  0.04900
 H16H  H 1.0  0.54110000(0)  0.63000000(0)  0.24420000(0)  0.04900
 H16I  H 1.0  0.41610000(0)  0.61910000(0)  0.22660000(0)  0.04900
 H17A  H 1.0  0.74020000(0)  0.31390000(0)  0.03750000(0)  0.04700
 H17C  H 1.0  0.64520000(0)  0.34160000(0)  0.01000000(0)  0.04700
 H17D  H 1.0  0.58950000(0)  0.67420000(0)  0.40570000(0)  0.04900
 H17E  H 1.0  0.70310000(0)  0.65200000(0)  0.41780000(0)  0.04900
 H17F  H 1.0  0.60860000(0)  0.64240000(0)  0.45190000(0)  0.04900
 H17G  H 1.0  0.52430000(0)  0.68390000(0)  0.01890000(0)  0.04800
 H17H  H 1.0  0.60830000(0)  0.65040000(0)  0.04040000(0)  0.04800
 H17I  H 1.0  0.63550000(0)  0.69450000(0)  0.05610000(0)  0.04800
 H1AA  H 1.0  0.73920000(0)  0.32590000(0)  0.12120000(0)  0.02500
 H1AB  H 1.0  0.82310000(0)  0.34690000(0)  0.16600000(0)  0.02500
 H1BA  H 1.0  0.32550000(0)  0.63190000(0)  0.36100000(0)  0.02600
 H1BB  H 1.0  0.40670000(0)  0.64780000(0)  0.41110000(0)  0.02600
 H1CA  H 1.0  0.41920000(0)  0.73130000(0)  0.04630000(0)  0.03100
 H1CB  H 1.0  0.31270000(0)  0.72580000(0)  0.07390000(0)  0.03100
 H22A  H 1.0  0.65510000(0)  0.39850000(0)  -0.05500000(0)  0.03300
 H22B  H 1.0  0.76730000(0)  0.53480000(0)  0.36000000(0)  0.03100
 H22C  H 1.0  0.72570000(0)  0.64050000(0)  0.21030000(0)  0.03700
 H23A  H 1.0  0.63800000(0)  0.41560000(0)  -0.14450000(0)  0.03300
 H23B  H 1.0  0.94980000(0)  0.52890000(0)  0.34910000(0)  0.02900
 H23C  H 1.0  0.84650000(0)  0.58890000(0)  0.22810000(0)  0.03700
 H25A  H 1.0  0.95000000(0)  0.45320000(0)  -0.12210000(0)  0.03600
 H25B  H 1.0  0.95950000(0)  0.64370000(0)  0.31730000(0)  0.03000
 H25C  H 1.0  0.67220000(0)  0.52690000(0)  0.11010000(0)  0.03400
 H26A  H 1.0  0.97030000(0)  0.43310000(0)  -0.03400000(0)  0.03700
 H26B  H 1.0  0.77690000(0)  0.64940000(0)  0.32730000(0)  0.03000
 H26C  H 1.0  0.55580000(0)  0.57930000(0)  0.08940000(0)  0.03500
 H36A  H 1.0  0.65910000(0)  0.46010000(0)  0.24450000(0)  0.04100
 H36B  H 1.0  0.52950000(0)  0.45700000(0)  0.23540000(0)  0.04100
 H36C  H 1.0  0.59010000(0)  0.47720000(0)  0.19150000(0)  0.04100
 H36D  H 1.0  0.12640000(0)  0.51080000(0)  0.40550000(0)  0.04800
 H36G  H 1.0  0.31520000(0)  0.81880000(0)  0.23020000(0)  0.05600
 H36H  H 1.0  0.43700000(0)  0.83380000(0)  0.24690000(0)  0.05600
 H36I  H 1.0  0.40550000(0)  0.79050000(0)  0.26060000(0)  0.05600
 H37A  H 1.0  0.54920000(0)  0.32600000(0)  0.08420000(0)  0.04100
 H37B  H 1.0  0.43920000(0)  0.33200000(0)  0.10860000(0)  0.04100
 H37C  H 1.0  0.53400000(0)  0.30540000(0)  0.13890000(0)  0.04100
 H37G  H 1.0  0.61100000(0)  0.77210000(0)  0.06610000(0)  0.04800
 H37H  H 1.0  0.59110000(0)  0.81780000(0)  0.06260000(0)  0.04800
 H37I  H 1.0  0.50620000(0)  0.78900000(0)  0.02920000(0)  0.04800
 H42A  H 1.0  0.38730000(0)  0.45470000(0)  0.15500000(0)  0.03100
 H42B  H 1.0  0.37140000(0)  0.56550000(0)  0.58580000(0)  0.03600
 H42C  H 1.0  0.70300000(0)  0.83410000(0)  0.15720000(0)  0.03700
 H43A  H 1.0  0.20660000(0)  0.46260000(0)  0.16820000(0)  0.03000
 H43B  H 1.0  0.29950000(0)  0.56200000(0)  0.66510000(0)  0.03400
 H43C  H 1.0  0.78600000(0)  0.89380000(0)  0.17350000(0)  0.03500
 H45A  H 1.0  0.19360000(0)  0.34950000(0)  0.20820000(0)  0.03200
 H45B  H 1.0  0.00100000(0)  0.54240000(0)  0.58350000(0)  0.03700
 H45C  H 1.0  0.49320000(0)  0.94390000(0)  0.17720000(0)  0.03000
 H46A  H 1.0  0.37460000(0)  0.34160000(0)  0.19610000(0)  0.03200
 H46B  H 1.0  0.06870000(0)  0.55040000(0)  0.50380000(0)  0.03900
 H46C  H 1.0  0.41090000(0)  0.88320000(0)  0.16710000(0)  0.03200
 Mn1  Mn 1.0  0.86196000(4000)  0.43127000(2000)  0.19492000(2000)  0.01873
 Mn2  Mn 1.0  1.06476000(4000)  0.49590000(2000)  0.25850000(2000)  0.01827
 Mn3  Mn 1.0  1.29312000(4000)  0.55056000(2000)  0.31342000(2000)  0.01783
 N11A  N 1.0  0.80270000(20000)  0.37464000(8000)  0.09585000(10000)  0.02013
 N11B  N 1.0  0.47530000(20000)  0.60936000(8000)  0.36718000(11000)  0.01997
 N11C  N 1.0  0.43890000(20000)  0.69295000(9000)  0.10656000(12000)  0.02460
 N12A  N 1.0  0.85670000(20000)  0.40806000(8000)  0.11091000(11000)  0.02150
 N12B  N 1.0  0.45610000(20000)  0.58029000(8000)  0.33080000(10000)  0.02030
 N12C  N 1.0  0.40740000(30000)  0.68422000(9000)  0.15457000(12000)  0.02613
 N31A  N 1.0  0.67410000(20000)  0.37040000(8000)  0.15597000(11000)  0.02110
 N31B  N 1.0  0.34290000(20000)  0.59578000(8000)  0.42361000(11000)  0.02187
 N31C  N 1.0  0.42360000(30000)  0.76112000(9000)  0.11436000(13000)  0.02753
 N32A  N 1.0  0.69680000(20000)  0.40411000(9000)  0.18322000(11000)  0.02197
 N32B  N 1.0  0.29580000(20000)  0.56317000(8000)  0.40065000(11000)  0.02107
 N32C  N 1.0  0.37840000(30000)  0.76512000(9000)  0.16001000(13000)  0.02920
 O28A  O 1.0  0.84410000(30000)  0.47700000(8000)  -0.20666000(10000)  0.03553
 O28B  O 1.0  1.11852000(19000)  0.54659000(8000)  0.31131000(9000)  0.02343
 O28C  O 1.0  0.80640000(20000)  0.48565000(8000)  0.16924000(10000)  0.02683
 O29A  O 1.0  0.70960000(20000)  0.43573000(8000)  -0.23243000(9000)  0.02833
 O29B  O 1.0  1.14690000(20000)  0.60950000(8000)  0.32110000(11000)  0.03077
 O29C  O 1.0  0.92210000(20000)  0.52350000(9000)  0.22192000(12000)  0.03283
 O48A  O 1.0  0.03307000(19000)  0.44744000(7000)  0.19944000(9000)  0.02173
 O48B  O 1.0  0.15230000(20000)  0.56817000(8000)  0.72329000(9000)  0.02813
 O48C  O 1.0  0.80150000(20000)  0.96346000(8000)  0.20259000(11000)  0.02663
 O49A  O 1.0  0.01110000(20000)  0.38501000(8000)  0.20930000(10000)  0.02713
 O49B  O 1.0  0.01330000(20000)  0.53257000(8000)  0.68395000(10000)  0.02690
 O49C  O 1.0  0.64430000(20000)  0.99389000(7000)  0.17787000(10000)  0.02450
 Rh4  Rh 1.0  0.28888000(2000)  0.71750000(2000)  0.18339000(2000)  0.02782

loop_
_atom_site_aniso_label
_atom_site_aniso_U_11
_atom_site_aniso_U_22
_atom_site_aniso_U_33
_atom_site_aniso_U_23
_atom_site_aniso_U_13
_atom_site_aniso_U_12
B60   0.06300 0.03000 0.06300 -0.00300 0.00700 -0.00200
C50   0.03100 0.03400 0.05400 -0.00370 0.00990 -0.00630
C51   0.03200 0.03200 0.05500 0.00560 0.01490 -0.00360
C52   0.04100 0.05100 0.05100 0.00200 0.02200 -0.00100
C53   0.04000 0.03900 0.05600 -0.00900 0.02100 -0.00160
C54   0.03900 0.03200 0.07200 0.00300 0.02200 0.00730
C55   0.03100 0.04800 0.06100 0.00300 0.00550 0.00000
C56   0.03700 0.05200 0.07800 0.00100 0.02500 0.00000
C13A   0.02170 0.02710 0.01860 0.00010 0.00530 -0.00310
C13B   0.01840 0.02310 0.02190 -0.00120 0.00760 -0.00180
C13C   0.02560 0.02300 0.03040 0.00210 0.00320 -0.00140
C14A   0.02110 0.02820 0.01970 -0.00110 0.00450 -0.00320
C14B   0.01920 0.02290 0.02490 -0.00200 0.00710 -0.00070
C14C   0.02370 0.02310 0.02750 0.00050 0.00090 0.00070
C15A   0.02110 0.02880 0.01800 -0.00150 0.00470 -0.00130
C15B   0.01710 0.02350 0.02520 -0.00190 0.00550 -0.00260
C15C   0.02380 0.02200 0.02580 -0.00190 0.00020 -0.00040
C16A   0.03800 0.03500 0.02330 -0.00130 0.00850 -0.01420
C16B   0.02470 0.03350 0.03100 -0.01090 0.01050 -0.00220
C16C   0.03450 0.03190 0.03190 0.00910 0.00720 0.00400
C17A   0.03800 0.03500 0.02250 -0.00670 0.00710 -0.01260
C17B   0.02310 0.03410 0.04200 -0.01640 0.00750 -0.00590
C17C   0.03120 0.03620 0.02880 0.00080 0.00590 0.00340
C1A   0.01860 0.02350 0.02150 -0.00040 0.00750 0.00140
C1B   0.02110 0.02230 0.02460 -0.00110 0.01230 -0.00170
C1C   0.03200 0.01810 0.02640 -0.00010 -0.00110 0.00150
C21A   0.02590 0.03240 0.01820 0.00040 0.00380 -0.00450
C21B   0.01840 0.02600 0.02570 -0.00480 0.00610 -0.00050
C21C   0.02280 0.02850 0.02810 0.00290 0.00350 0.00310
C22A   0.02420 0.03850 0.02130 0.00440 0.00480 -0.00810
C22B   0.02180 0.02530 0.03210 -0.00200 0.00910 -0.00240
C22C   0.02740 0.02730 0.03580 -0.00350 -0.00240 0.00460
C23A   0.02150 0.04200 0.01990 0.00330 0.00350 -0.00820
C23B   0.02140 0.02460 0.02900 -0.00070 0.00800 0.00140
C23C   0.02970 0.02980 0.03180 -0.00210 -0.00230 0.00300
C24A   0.02580 0.02990 0.01880 0.00180 0.00650 -0.00520
C24B   0.01800 0.02610 0.02370 -0.00260 0.00680 -0.00110
C24C   0.01970 0.02750 0.02410 0.00110 0.00400 0.00320
C25A   0.02240 0.04600 0.02240 0.00180 0.00680 -0.01080
C25B   0.01900 0.02600 0.03000 -0.00150 0.00630 -0.00230
C25C   0.02500 0.03070 0.02730 -0.00390 -0.00010 0.00190
C26A   0.02280 0.04700 0.02200 -0.00030 0.00320 -0.00890
C26B   0.01960 0.02480 0.03110 -0.00170 0.00660 -0.00030
C26C   0.02560 0.03250 0.02760 -0.00050 -0.00210 0.00410
C27A   0.02540 0.02840 0.02100 0.00190 0.00890 0.00120
C27B   0.01880 0.02860 0.02040 0.00300 0.00150 -0.00100
C27C   0.01970 0.02980 0.01970 0.00110 0.00300 0.00330
C33A   0.01810 0.02880 0.02320 -0.00280 0.00630 -0.00050
C33B   0.02110 0.02850 0.01760 0.00070 0.00590 -0.00430
C33C   0.03460 0.02440 0.03000 -0.00210 0.00340 -0.00190
C34A   0.01610 0.02750 0.02560 -0.00140 0.00490 0.00000
C34B   0.02260 0.03180 0.01930 -0.00220 0.00730 -0.00530
C34C   0.02770 0.02120 0.03350 -0.00190 0.00290 0.00000
C35A   0.01530 0.02850 0.02250 -0.00080 0.00490 -0.00070
C35B   0.02630 0.03000 0.02350 -0.00680 0.01060 -0.00730
C35C   0.02790 0.02090 0.03310 0.00070 0.00190 0.00050
C36A   0.02180 0.03040 0.03170 -0.00820 0.01020 0.00020
C36B   0.04100 0.03450 0.02090 -0.00160 0.00750 -0.01750
C36C   0.04400 0.03260 0.03600 -0.00890 0.00900 -0.00520
C37A   0.02210 0.02880 0.03290 -0.00770 0.00720 -0.00420
C37C   0.03230 0.02560 0.03860 -0.00050 0.00820 -0.00030
C41A   0.01720 0.03040 0.02390 -0.00370 0.00540 -0.00210
C41B   0.02320 0.03410 0.01940 -0.00130 0.00690 -0.00700
C41C   0.02570 0.02350 0.03130 -0.00190 0.00170 -0.00150
C42A   0.02120 0.02930 0.02940 0.00000 0.00910 -0.00140
C42B   0.02170 0.04700 0.02320 -0.00450 0.00600 -0.00790
C42C   0.02540 0.02400 0.04300 -0.00550 0.00360 0.00380
C43A   0.02090 0.02630 0.02750 -0.00030 0.00650 0.00100
C43B   0.02390 0.04100 0.02200 -0.00400 0.00570 -0.00770
C43C   0.02130 0.02690 0.03910 -0.00240 0.00430 0.00090
C44A   0.01640 0.03010 0.02390 -0.00300 0.00620 -0.00130
C44B   0.02140 0.03140 0.01870 -0.00140 0.00710 -0.00420
C44C   0.02100 0.02230 0.02510 -0.00310 0.00340 -0.00140
C45A   0.01950 0.02880 0.03450 -0.00110 0.01040 -0.00300
C45B   0.02290 0.04900 0.02190 -0.00110 0.00570 -0.01230
C45C   0.02160 0.02300 0.03010 -0.00350 0.00310 0.00120
C46A   0.01870 0.02610 0.03670 -0.00150 0.00780 0.00130
C46B   0.02620 0.05200 0.02060 -0.00230 0.00620 -0.00730
C46C   0.02190 0.02360 0.03480 -0.00200 0.00220 -0.00070
C47A   0.01580 0.02960 0.01820 -0.00090 0.00410 -0.00100
C47B   0.01830 0.02940 0.01910 0.00000 0.00530 -0.00180
C47C   0.02200 0.02400 0.01910 -0.00120 0.00620 -0.00080
F61   0.11000 0.05070 0.04380 -0.00630 0.00940 -0.00790
F62   0.07000 0.03630 0.08400 -0.00110 -0.00470 -0.00810
F63   0.11600 0.07000 0.16800 -0.04000 0.03300 0.02100
F64   0.07200 0.07300 0.12200 0.03600 0.00100 -0.02400
Mn1   0.01510 0.02420 0.01690 -0.00179 0.00440 -0.00171
Mn2   0.01440 0.02300 0.01740 0.00093 0.00411 -0.00077
Mn3   0.01600 0.02160 0.01590 0.00014 0.00476 -0.00160
N11A   0.01980 0.02280 0.01780 -0.00210 0.00490 -0.00140
N11B   0.01770 0.02110 0.02110 -0.00280 0.00700 -0.00060
N11C   0.02470 0.02160 0.02750 0.00160 0.00120 0.00150
N12A   0.02020 0.02420 0.02010 -0.00160 0.00610 -0.00310
N12B   0.01830 0.02270 0.01990 -0.00290 0.00710 -0.00260
N12C   0.02690 0.02220 0.02930 0.00170 0.00450 0.00010
N31A   0.01830 0.02410 0.02090 -0.00300 0.00670 -0.00290
N31B   0.02270 0.02330 0.01960 -0.00400 0.00840 -0.00680
N31C   0.03230 0.02000 0.03030 -0.00080 0.00480 0.00000
N32A   0.01880 0.02530 0.02180 -0.00390 0.00660 -0.00170
N32B   0.02170 0.02220 0.01930 -0.00110 0.00640 -0.00490
N32C   0.03300 0.02410 0.03050 -0.00210 0.00580 -0.00390
O28A   0.05080 0.03150 0.02430 0.00030 0.01780 -0.01160
O28B   0.01610 0.03180 0.02240 -0.00270 0.00470 0.00270
O28C   0.02290 0.02580 0.03180 -0.00040 0.00140 0.00370
O29A   0.02530 0.04260 0.01710 0.00560 0.00440 -0.00130
O29B   0.01900 0.03220 0.04110 0.00680 0.00640 -0.00130
O29C   0.02600 0.03380 0.03870 -0.00740 -0.00930 0.01010
O48A   0.01690 0.02760 0.02070 -0.00320 0.00500 -0.00040
O48B   0.02490 0.04050 0.01900 -0.00470 0.00630 -0.00990
O48C   0.01930 0.02700 0.03360 -0.00360 0.00030 -0.00280
O49A   0.01930 0.02980 0.03230 0.00300 0.00690 -0.00050
O49B   0.02450 0.03400 0.02220 -0.00010 0.01000 -0.00670
O49C   0.02190 0.02170 0.02990 -0.00110 0.00290 -0.00090
Rh4   0.02548 0.02293 0.03504 -0.00046 0.00655 0.00006
